*----------------------------------------------------------------------
* SPICE Model generated by Murata Manufacturing Co., Ltd.
* Copyright(C) Murata Manufacturing Co., Ltd.
* Description :1608M(0603)/X7R(-55to125[deg])/2.70e-02[uF]/25[V]
* Murata P/N :GCE188R71E273KA01
* Property : C = 2.70e-02[uF]
*----------------------------------------------------------------------
* Applicable Conditions:
*   Frequency Range = 100[kHz]-6[GHz]
*   Temperature = 25 degC
*   DC Bias Voltage = 0V
*   Small Signal Operation
*----------------------------------------------------------------------
.SUBCKT GCE188R71E273KA01 Port1 Port2
C01 Port1 N01 2.60e-08
R01 Port1 N01 1.00e+10
L02 N01 N02 1.55e-10
R03 N02 N03 3.73e-02
C04 N03 N04 1.19e-06
R04 N03 N04 2.56e+00
C05 N04 N05 1.77e-06
R05 N04 N05 1.89e-01
C06 N05 N06 1.85e-06
R06 N05 N06 3.10e-02
L07 N06 N07 1.00e-10
R07 N06 N07 1.38e-01
C08 N07 N08 1.28e-07
L08 N07 N08 1.98e-11
R08 N07 N08 2.60e-02
C09 N08 N09 4.23e-08
L09 N08 N09 3.09e-11
R09 N08 N09 6.56e-02
C10 N09 N10 4.26e-12
L10 N09 N10 1.83e-10
R10 N09 N10 2.40e+01
C11 N10 Port2 2.64e-12
L11 N10 Port2 1.43e-10
R11 N10 Port2 3.16e+01
.ENDS GCE188R71E273KA01
*----------------------------------------------------------------------
* SPICE Model generated by Murata Manufacturing Co., Ltd.
* Copyright(C) Murata Manufacturing Co., Ltd.
* Description :1608M(0603)/X7R(-55to125[deg])/2.70e-02[uF]/25[V]
* Murata P/N :GCE188R71E273MA01
* Property : C = 2.70e-02[uF]
*----------------------------------------------------------------------
* Applicable Conditions:
*   Frequency Range = 100[kHz]-6[GHz]
*   Temperature = 25 degC
*   DC Bias Voltage = 0V
*   Small Signal Operation
*----------------------------------------------------------------------
.SUBCKT GCE188R71E273MA01 Port1 Port2
C01 Port1 N01 2.60e-08
R01 Port1 N01 1.00e+10
L02 N01 N02 1.55e-10
R03 N02 N03 3.73e-02
C04 N03 N04 1.19e-06
R04 N03 N04 2.56e+00
C05 N04 N05 1.77e-06
R05 N04 N05 1.89e-01
C06 N05 N06 1.85e-06
R06 N05 N06 3.10e-02
L07 N06 N07 1.00e-10
R07 N06 N07 1.38e-01
C08 N07 N08 1.28e-07
L08 N07 N08 1.98e-11
R08 N07 N08 2.60e-02
C09 N08 N09 4.23e-08
L09 N08 N09 3.09e-11
R09 N08 N09 6.56e-02
C10 N09 N10 4.26e-12
L10 N09 N10 1.83e-10
R10 N09 N10 2.40e+01
C11 N10 Port2 2.64e-12
L11 N10 Port2 1.43e-10
R11 N10 Port2 3.16e+01
.ENDS GCE188R71E273MA01
*----------------------------------------------------------------------
* SPICE Model generated by Murata Manufacturing Co., Ltd.
* Copyright(C) Murata Manufacturing Co., Ltd.
* Description :1608M(0603)/X7R(-55to125[deg])/3.30e-02[uF]/25[V]
* Murata P/N :GCE188R71E333KA01
* Property : C = 3.30e-02[uF]
*----------------------------------------------------------------------
* Applicable Conditions:
*   Frequency Range = 100[kHz]-6[GHz]
*   Temperature = 25 degC
*   DC Bias Voltage = 0V
*   Small Signal Operation
*----------------------------------------------------------------------
.SUBCKT GCE188R71E333KA01 Port1 Port2
C01 Port1 N01 3.27e-08
R01 Port1 N01 1.00e+10
L02 N01 N02 1.52e-10
R03 N02 N03 3.18e-02
C04 N03 N04 1.52e-06
R04 N03 N04 2.09e+00
C05 N04 N05 2.17e-06
R05 N04 N05 1.68e-01
C06 N05 N06 1.92e-06
R06 N05 N06 2.56e-02
L07 N06 N07 1.06e-10
R07 N06 N07 1.25e-01
C08 N07 N08 4.84e-07
L08 N07 N08 8.35e-12
R08 N07 N08 1.33e-02
C09 N08 N09 3.76e-08
L09 N08 N09 4.84e-11
R09 N08 N09 6.35e-02
C10 N09 N10 5.10e-12
L10 N09 N10 1.36e-10
R10 N09 N10 1.93e+01
C11 N10 Port2 2.36e-12
L11 N10 Port2 1.51e-10
R11 N10 Port2 3.80e+01
.ENDS GCE188R71E333KA01
*----------------------------------------------------------------------
* SPICE Model generated by Murata Manufacturing Co., Ltd.
* Copyright(C) Murata Manufacturing Co., Ltd.
* Description :1608M(0603)/X7R(-55to125[deg])/3.30e-02[uF]/25[V]
* Murata P/N :GCE188R71E333MA01
* Property : C = 3.30e-02[uF]
*----------------------------------------------------------------------
* Applicable Conditions:
*   Frequency Range = 100[kHz]-6[GHz]
*   Temperature = 25 degC
*   DC Bias Voltage = 0V
*   Small Signal Operation
*----------------------------------------------------------------------
.SUBCKT GCE188R71E333MA01 Port1 Port2
C01 Port1 N01 3.27e-08
R01 Port1 N01 1.00e+10
L02 N01 N02 1.52e-10
R03 N02 N03 3.18e-02
C04 N03 N04 1.52e-06
R04 N03 N04 2.09e+00
C05 N04 N05 2.17e-06
R05 N04 N05 1.68e-01
C06 N05 N06 1.92e-06
R06 N05 N06 2.56e-02
L07 N06 N07 1.06e-10
R07 N06 N07 1.25e-01
C08 N07 N08 4.84e-07
L08 N07 N08 8.35e-12
R08 N07 N08 1.33e-02
C09 N08 N09 3.76e-08
L09 N08 N09 4.84e-11
R09 N08 N09 6.35e-02
C10 N09 N10 5.10e-12
L10 N09 N10 1.36e-10
R10 N09 N10 1.93e+01
C11 N10 Port2 2.36e-12
L11 N10 Port2 1.51e-10
R11 N10 Port2 3.80e+01
.ENDS GCE188R71E333MA01
*----------------------------------------------------------------------
* SPICE Model generated by Murata Manufacturing Co., Ltd.
* Copyright(C) Murata Manufacturing Co., Ltd.
* Description :1608M(0603)/X7R(-55to125[deg])/3.90e-02[uF]/25[V]
* Murata P/N :GCE188R71E393KA01
* Property : C = 3.90e-02[uF]
*----------------------------------------------------------------------
* Applicable Conditions:
*   Frequency Range = 100[kHz]-6[GHz]
*   Temperature = 25 degC
*   DC Bias Voltage = 0V
*   Small Signal Operation
*----------------------------------------------------------------------
.SUBCKT GCE188R71E393KA01 Port1 Port2
C01 Port1 N01 4.06e-08
R01 Port1 N01 1.00e+10
L02 N01 N02 2.09e-10
R03 N02 N03 2.98e-02
C04 N03 N04 2.08e-06
R04 N03 N04 1.31e+00
C05 N04 N05 3.92e-06
R05 N04 N05 1.23e-01
C06 N05 N06 2.06e-06
R06 N05 N06 3.54e-02
L07 N06 N07 1.39e-10
R07 N06 N07 1.32e-01
C08 N07 N08 2.89e-07
L08 N07 N08 1.97e-11
R08 N07 N08 2.60e-02
C09 N08 N09 7.21e-08
L09 N08 N09 3.58e-11
R09 N08 N09 5.52e-02
C10 N09 N10 5.71e-12
L10 N09 N10 9.60e-11
R10 N09 N10 1.60e+01
C11 N10 Port2 3.74e-12
L11 N10 Port2 9.11e-11
R11 N10 Port2 3.01e+01
.ENDS GCE188R71E393KA01
*----------------------------------------------------------------------
* SPICE Model generated by Murata Manufacturing Co., Ltd.
* Copyright(C) Murata Manufacturing Co., Ltd.
* Description :1608M(0603)/X7R(-55to125[deg])/3.90e-02[uF]/25[V]
* Murata P/N :GCE188R71E393MA01
* Property : C = 3.90e-02[uF]
*----------------------------------------------------------------------
* Applicable Conditions:
*   Frequency Range = 100[kHz]-6[GHz]
*   Temperature = 25 degC
*   DC Bias Voltage = 0V
*   Small Signal Operation
*----------------------------------------------------------------------
.SUBCKT GCE188R71E393MA01 Port1 Port2
C01 Port1 N01 4.06e-08
R01 Port1 N01 1.00e+10
L02 N01 N02 2.09e-10
R03 N02 N03 2.98e-02
C04 N03 N04 2.08e-06
R04 N03 N04 1.31e+00
C05 N04 N05 3.92e-06
R05 N04 N05 1.23e-01
C06 N05 N06 2.06e-06
R06 N05 N06 3.54e-02
L07 N06 N07 1.39e-10
R07 N06 N07 1.32e-01
C08 N07 N08 2.89e-07
L08 N07 N08 1.97e-11
R08 N07 N08 2.60e-02
C09 N08 N09 7.21e-08
L09 N08 N09 3.58e-11
R09 N08 N09 5.52e-02
C10 N09 N10 5.71e-12
L10 N09 N10 9.60e-11
R10 N09 N10 1.60e+01
C11 N10 Port2 3.74e-12
L11 N10 Port2 9.11e-11
R11 N10 Port2 3.01e+01
.ENDS GCE188R71E393MA01
*----------------------------------------------------------------------
* SPICE Model generated by Murata Manufacturing Co., Ltd.
* Copyright(C) Murata Manufacturing Co., Ltd.
* Description :1608M(0603)/X7R(-55to125[deg])/4.70e-02[uF]/25[V]
* Murata P/N :GCE188R71E473KA01
* Property : C = 4.70e-02[uF]
*----------------------------------------------------------------------
* Applicable Conditions:
*   Frequency Range = 100[kHz]-6[GHz]
*   Temperature = 25 degC
*   DC Bias Voltage = 0V
*   Small Signal Operation
*----------------------------------------------------------------------
.SUBCKT GCE188R71E473KA01 Port1 Port2
C01 Port1 N01 4.87e-08
R01 Port1 N01 1.00e+10
L02 N01 N02 2.06e-10
R03 N02 N03 2.58e-02
C04 N03 N04 2.37e-06
R04 N03 N04 9.13e-01
C05 N04 N05 3.48e-06
R05 N04 N05 6.20e-02
C06 N05 N06 3.43e-06
R06 N05 N06 9.87e-03
L07 N06 N07 1.58e-10
R07 N06 N07 1.28e-01
L08 N07 N08 4.41e-12
R08 N07 N08 4.68e-02
C09 N08 N09 3.10e-07
L09 N08 N09 2.23e-11
R09 N08 N09 3.09e-02
C10 N09 N10 1.02e-07
L10 N09 N10 3.47e-11
R10 N09 N10 5.60e-02
C11 N10 Port2 2.54e-12
L11 N10 Port2 1.48e-10
R11 N10 Port2 3.05e+01
.ENDS GCE188R71E473KA01
*----------------------------------------------------------------------
* SPICE Model generated by Murata Manufacturing Co., Ltd.
* Copyright(C) Murata Manufacturing Co., Ltd.
* Description :1608M(0603)/X7R(-55to125[deg])/4.70e-02[uF]/25[V]
* Murata P/N :GCE188R71E473MA01
* Property : C = 4.70e-02[uF]
*----------------------------------------------------------------------
* Applicable Conditions:
*   Frequency Range = 100[kHz]-6[GHz]
*   Temperature = 25 degC
*   DC Bias Voltage = 0V
*   Small Signal Operation
*----------------------------------------------------------------------
.SUBCKT GCE188R71E473MA01 Port1 Port2
C01 Port1 N01 4.87e-08
R01 Port1 N01 1.00e+10
L02 N01 N02 2.06e-10
R03 N02 N03 2.58e-02
C04 N03 N04 2.37e-06
R04 N03 N04 9.13e-01
C05 N04 N05 3.48e-06
R05 N04 N05 6.20e-02
C06 N05 N06 3.43e-06
R06 N05 N06 9.87e-03
L07 N06 N07 1.58e-10
R07 N06 N07 1.28e-01
L08 N07 N08 4.41e-12
R08 N07 N08 4.68e-02
C09 N08 N09 3.10e-07
L09 N08 N09 2.23e-11
R09 N08 N09 3.09e-02
C10 N09 N10 1.02e-07
L10 N09 N10 3.47e-11
R10 N09 N10 5.60e-02
C11 N10 Port2 2.54e-12
L11 N10 Port2 1.48e-10
R11 N10 Port2 3.05e+01
.ENDS GCE188R71E473MA01
*----------------------------------------------------------------------
* SPICE Model generated by Murata Manufacturing Co., Ltd.
* Copyright(C) Murata Manufacturing Co., Ltd.
* Description :1608M(0603)/X7R(-55to125[deg])/1.00e-03[uF]/50[V]
* Murata P/N :GCE188R71H102KA01
* Property : C = 1.00e-03[uF]
*----------------------------------------------------------------------
* Applicable Conditions:
*   Frequency Range = 100[kHz]-6[GHz]
*   Temperature = 25 degC
*   DC Bias Voltage = 0V
*   Small Signal Operation
*----------------------------------------------------------------------
.SUBCKT GCE188R71H102KA01 Port1 Port2
C01 Port1 N01 1.09e-09
R01 Port1 N01 1.00e+10
L02 N01 N02 9.52e-11
R03 N02 N03 3.16e-01
C04 N03 N04 8.06e-09
R04 N03 N04 5.00e+02
C05 N04 N05 5.21e-08
R05 N04 N05 2.50e+00
C06 N05 N06 2.69e-08
R06 N05 N06 4.24e-01
C07 N06 N07 1.08e-08
R07 N06 N07 1.48e-01
C08 N07 N08 1.45e-11
L08 N07 N08 2.59e-10
R08 N07 N08 4.89e+00
C09 N08 Port2 1.08e-12
L09 N08 Port2 2.54e-10
R09 N08 Port2 3.92e+01
.ENDS GCE188R71H102KA01
*----------------------------------------------------------------------
* SPICE Model generated by Murata Manufacturing Co., Ltd.
* Copyright(C) Murata Manufacturing Co., Ltd.
* Description :1608M(0603)/X7R(-55to125[deg])/1.00e-03[uF]/50[V]
* Murata P/N :GCE188R71H102MA01
* Property : C = 1.00e-03[uF]
*----------------------------------------------------------------------
* Applicable Conditions:
*   Frequency Range = 100[kHz]-6[GHz]
*   Temperature = 25 degC
*   DC Bias Voltage = 0V
*   Small Signal Operation
*----------------------------------------------------------------------
.SUBCKT GCE188R71H102MA01 Port1 Port2
C01 Port1 N01 1.09e-09
R01 Port1 N01 1.00e+10
L02 N01 N02 9.52e-11
R03 N02 N03 3.16e-01
C04 N03 N04 8.06e-09
R04 N03 N04 5.00e+02
C05 N04 N05 5.21e-08
R05 N04 N05 2.50e+00
C06 N05 N06 2.69e-08
R06 N05 N06 4.24e-01
C07 N06 N07 1.08e-08
R07 N06 N07 1.48e-01
C08 N07 N08 1.45e-11
L08 N07 N08 2.59e-10
R08 N07 N08 4.89e+00
C09 N08 Port2 1.08e-12
L09 N08 Port2 2.54e-10
R09 N08 Port2 3.92e+01
.ENDS GCE188R71H102MA01
*----------------------------------------------------------------------
* SPICE Model generated by Murata Manufacturing Co., Ltd.
* Copyright(C) Murata Manufacturing Co., Ltd.
* Description :1608M(0603)/X7R(-55to125[deg])/1.00e-02[uF]/50[V]
* Murata P/N :GCE188R71H103KA01
* Property : C = 1.00e-02[uF]
*----------------------------------------------------------------------
* Applicable Conditions:
*   Frequency Range = 100[kHz]-6[GHz]
*   Temperature = 25 degC
*   DC Bias Voltage = 0V
*   Small Signal Operation
*----------------------------------------------------------------------
.SUBCKT GCE188R71H103KA01 Port1 Port2
C01 Port1 N01 9.37e-09
R01 Port1 N01 1.00e+10
L02 N01 N02 1.38e-10
R03 N02 N03 7.01e-02
C04 N03 N04 3.13e-07
R04 N03 N04 1.24e+01
C05 N04 N05 6.53e-07
R05 N04 N05 4.07e-01
C06 N05 N06 4.99e-07
R06 N05 N06 5.79e-02
L07 N06 N07 1.37e-10
R07 N06 N07 2.63e-01
C08 N07 N08 7.80e-08
L08 N07 N08 1.48e-11
R08 N07 N08 5.19e-02
C09 N08 N09 1.61e-08
L09 N08 N09 3.25e-11
R09 N08 N09 9.37e-02
C10 N09 N10 7.59e-12
L10 N09 N10 6.68e-11
R10 N09 N10 1.35e+01
C11 N10 Port2 2.19e-12
L11 N10 Port2 1.46e-10
R11 N10 Port2 3.81e+01
.ENDS GCE188R71H103KA01
*----------------------------------------------------------------------
* SPICE Model generated by Murata Manufacturing Co., Ltd.
* Copyright(C) Murata Manufacturing Co., Ltd.
* Description :1608M(0603)/X7R(-55to125[deg])/1.00e-02[uF]/50[V]
* Murata P/N :GCE188R71H103MA01
* Property : C = 1.00e-02[uF]
*----------------------------------------------------------------------
* Applicable Conditions:
*   Frequency Range = 100[kHz]-6[GHz]
*   Temperature = 25 degC
*   DC Bias Voltage = 0V
*   Small Signal Operation
*----------------------------------------------------------------------
.SUBCKT GCE188R71H103MA01 Port1 Port2
C01 Port1 N01 9.37e-09
R01 Port1 N01 1.00e+10
L02 N01 N02 1.38e-10
R03 N02 N03 7.01e-02
C04 N03 N04 3.13e-07
R04 N03 N04 1.24e+01
C05 N04 N05 6.53e-07
R05 N04 N05 4.07e-01
C06 N05 N06 4.99e-07
R06 N05 N06 5.79e-02
L07 N06 N07 1.37e-10
R07 N06 N07 2.63e-01
C08 N07 N08 7.80e-08
L08 N07 N08 1.48e-11
R08 N07 N08 5.19e-02
C09 N08 N09 1.61e-08
L09 N08 N09 3.25e-11
R09 N08 N09 9.37e-02
C10 N09 N10 7.59e-12
L10 N09 N10 6.68e-11
R10 N09 N10 1.35e+01
C11 N10 Port2 2.19e-12
L11 N10 Port2 1.46e-10
R11 N10 Port2 3.81e+01
.ENDS GCE188R71H103MA01
*----------------------------------------------------------------------
* SPICE Model generated by Murata Manufacturing Co., Ltd.
* Copyright(C) Murata Manufacturing Co., Ltd.
* Description :1608M(0603)/X7R(-55to125[deg])/1.20e-03[uF]/50[V]
* Murata P/N :GCE188R71H122KA01
* Property : C = 1.20e-03[uF]
*----------------------------------------------------------------------
* Applicable Conditions:
*   Frequency Range = 100[kHz]-6[GHz]
*   Temperature = 25 degC
*   DC Bias Voltage = 0V
*   Small Signal Operation
*----------------------------------------------------------------------
.SUBCKT GCE188R71H122KA01 Port1 Port2
C01 Port1 N01 1.31e-09
R01 Port1 N01 1.00e+10
L02 N01 N02 1.81e-10
R03 N02 N03 2.96e-01
C04 N03 N04 1.46e-08
R04 N03 N04 2.21e+02
C05 N04 N05 1.13e-07
R05 N04 N05 8.51e+00
C06 N05 N06 5.31e-08
R06 N05 N06 1.18e+00
C07 N06 N07 1.96e-08
R07 N06 N07 2.70e-01
C08 N07 N08 4.67e-08
R08 N07 N08 7.83e-03
C09 N08 N09 1.08e-09
L09 N08 N09 1.51e-11
R09 N08 N09 1.44e-01
C10 N09 N10 1.26e-11
L10 N09 N10 2.54e-10
R10 N09 N10 5.37e+00
C11 N10 Port2 2.36e-12
L11 N10 Port2 1.31e-10
R11 N10 Port2 1.40e+01
.ENDS GCE188R71H122KA01
*----------------------------------------------------------------------
* SPICE Model generated by Murata Manufacturing Co., Ltd.
* Copyright(C) Murata Manufacturing Co., Ltd.
* Description :1608M(0603)/X7R(-55to125[deg])/1.20e-02[uF]/50[V]
* Murata P/N :GCE188R71H123KA01
* Property : C = 1.20e-02[uF]
*----------------------------------------------------------------------
* Applicable Conditions:
*   Frequency Range = 100[kHz]-6[GHz]
*   Temperature = 25 degC
*   DC Bias Voltage = 0V
*   Small Signal Operation
*----------------------------------------------------------------------
.SUBCKT GCE188R71H123KA01 Port1 Port2
C01 Port1 N01 1.18e-08
R01 Port1 N01 1.00e+10
L02 N01 N02 1.92e-10
R03 N02 N03 5.91e-02
C04 N03 N04 4.13e-07
R04 N03 N04 1.93e+01
C05 N04 N05 1.04e-06
R05 N04 N05 6.12e-01
C06 N05 N06 1.16e-06
R06 N05 N06 1.08e-01
C07 N06 N07 8.12e-07
R07 N06 N07 3.66e-02
L08 N07 N08 1.05e-10
R08 N07 N08 1.72e-01
C09 N08 N09 1.36e-07
L09 N08 N09 9.35e-12
R09 N08 N09 3.14e-02
C10 N09 N10 2.46e-08
L10 N09 N10 2.32e-11
R10 N09 N10 8.10e-02
C11 N10 N11 3.62e-12
L11 N10 N11 1.74e-10
R11 N10 N11 2.09e+01
C12 N11 Port2 5.35e-12
L12 N11 Port2 6.93e-11
R12 N11 Port2 2.32e+01
.ENDS GCE188R71H123KA01
*----------------------------------------------------------------------
* SPICE Model generated by Murata Manufacturing Co., Ltd.
* Copyright(C) Murata Manufacturing Co., Ltd.
* Description :1608M(0603)/X7R(-55to125[deg])/1.20e-02[uF]/50[V]
* Murata P/N :GCE188R71H123MA01
* Property : C = 1.20e-02[uF]
*----------------------------------------------------------------------
* Applicable Conditions:
*   Frequency Range = 100[kHz]-6[GHz]
*   Temperature = 25 degC
*   DC Bias Voltage = 0V
*   Small Signal Operation
*----------------------------------------------------------------------
.SUBCKT GCE188R71H123MA01 Port1 Port2
C01 Port1 N01 1.18e-08
R01 Port1 N01 1.00e+10
L02 N01 N02 1.92e-10
R03 N02 N03 5.91e-02
C04 N03 N04 4.13e-07
R04 N03 N04 1.93e+01
C05 N04 N05 1.04e-06
R05 N04 N05 6.12e-01
C06 N05 N06 1.16e-06
R06 N05 N06 1.08e-01
C07 N06 N07 8.12e-07
R07 N06 N07 3.66e-02
L08 N07 N08 1.05e-10
R08 N07 N08 1.72e-01
C09 N08 N09 1.36e-07
L09 N08 N09 9.35e-12
R09 N08 N09 3.14e-02
C10 N09 N10 2.46e-08
L10 N09 N10 2.32e-11
R10 N09 N10 8.10e-02
C11 N10 N11 3.62e-12
L11 N10 N11 1.74e-10
R11 N10 N11 2.09e+01
C12 N11 Port2 5.35e-12
L12 N11 Port2 6.93e-11
R12 N11 Port2 2.32e+01
.ENDS GCE188R71H123MA01
*----------------------------------------------------------------------
* SPICE Model generated by Murata Manufacturing Co., Ltd.
* Copyright(C) Murata Manufacturing Co., Ltd.
* Description :1608M(0603)/X7R(-55to125[deg])/1.50e-03[uF]/50[V]
* Murata P/N :GCE188R71H152KA01
* Property : C = 1.50e-03[uF]
*----------------------------------------------------------------------
* Applicable Conditions:
*   Frequency Range = 100[kHz]-6[GHz]
*   Temperature = 25 degC
*   DC Bias Voltage = 0V
*   Small Signal Operation
*----------------------------------------------------------------------
.SUBCKT GCE188R71H152KA01 Port1 Port2
C01 Port1 N01 1.66e-09
R01 Port1 N01 1.00e+10
L02 N01 N02 1.39e-10
R03 N02 N03 2.10e-01
C04 N03 N04 1.77e-08
R04 N03 N04 2.37e+02
C05 N04 N05 1.16e-07
R05 N04 N05 1.87e+00
C06 N05 N06 6.29e-08
R06 N05 N06 4.53e-01
C07 N06 N07 1.92e-08
R07 N06 N07 1.40e-01
L08 N07 N08 1.58e-11
R08 N07 N08 1.12e-01
C09 N08 N09 2.48e-09
L09 N08 N09 1.26e-11
R09 N08 N09 1.88e-01
C10 N09 N10 1.40e-11
L10 N09 N10 2.24e-10
R10 N09 N10 4.51e+00
C11 N10 Port2 1.77e-12
L11 N10 Port2 1.87e-10
R11 N10 Port2 2.43e+01
.ENDS GCE188R71H152KA01
*----------------------------------------------------------------------
* SPICE Model generated by Murata Manufacturing Co., Ltd.
* Copyright(C) Murata Manufacturing Co., Ltd.
* Description :1608M(0603)/X7R(-55to125[deg])/1.50e-03[uF]/50[V]
* Murata P/N :GCE188R71H152MA01
* Property : C = 1.50e-03[uF]
*----------------------------------------------------------------------
* Applicable Conditions:
*   Frequency Range = 100[kHz]-6[GHz]
*   Temperature = 25 degC
*   DC Bias Voltage = 0V
*   Small Signal Operation
*----------------------------------------------------------------------
.SUBCKT GCE188R71H152MA01 Port1 Port2
C01 Port1 N01 1.66e-09
R01 Port1 N01 1.00e+10
L02 N01 N02 1.39e-10
R03 N02 N03 2.10e-01
C04 N03 N04 1.77e-08
R04 N03 N04 2.37e+02
C05 N04 N05 1.16e-07
R05 N04 N05 1.87e+00
C06 N05 N06 6.29e-08
R06 N05 N06 4.53e-01
C07 N06 N07 1.92e-08
R07 N06 N07 1.40e-01
L08 N07 N08 1.58e-11
R08 N07 N08 1.12e-01
C09 N08 N09 2.48e-09
L09 N08 N09 1.26e-11
R09 N08 N09 1.88e-01
C10 N09 N10 1.40e-11
L10 N09 N10 2.24e-10
R10 N09 N10 4.51e+00
C11 N10 Port2 1.77e-12
L11 N10 Port2 1.87e-10
R11 N10 Port2 2.43e+01
.ENDS GCE188R71H152MA01
*----------------------------------------------------------------------
* SPICE Model generated by Murata Manufacturing Co., Ltd.
* Copyright(C) Murata Manufacturing Co., Ltd.
* Description :1608M(0603)/X7R(-55to125[deg])/1.50e-02[uF]/50[V]
* Murata P/N :GCE188R71H153KA01
* Property : C = 1.50e-02[uF]
*----------------------------------------------------------------------
* Applicable Conditions:
*   Frequency Range = 100[kHz]-6[GHz]
*   Temperature = 25 degC
*   DC Bias Voltage = 0V
*   Small Signal Operation
*----------------------------------------------------------------------
.SUBCKT GCE188R71H153KA01 Port1 Port2
C01 Port1 N01 1.50e-08
R01 Port1 N01 1.00e+10
L02 N01 N02 2.18e-10
R03 N02 N03 4.78e-02
C04 N03 N04 6.89e-07
R04 N03 N04 1.46e+01
C05 N04 N05 1.69e-06
R05 N04 N05 9.20e-01
C06 N05 N06 1.28e-06
R06 N05 N06 2.38e-01
C07 N06 N07 1.25e-06
R07 N06 N07 4.94e-02
L08 N07 N08 9.14e-11
R08 N07 N08 1.83e-01
C09 N08 N09 1.10e-07
L09 N08 N09 1.66e-11
R09 N08 N09 4.72e-02
C10 N09 N10 2.54e-08
L10 N09 N10 3.30e-11
R10 N09 N10 9.64e-02
C11 N10 N11 4.59e-08
L11 N10 N11 5.67e-12
R11 N10 N11 2.58e-02
C12 N11 N12 8.37e-12
L12 N11 N12 7.06e-11
R12 N11 N12 1.14e+01
C13 N12 Port2 3.50e-12
L13 N12 Port2 8.98e-11
R13 N12 Port2 1.77e+01
.ENDS GCE188R71H153KA01
*----------------------------------------------------------------------
* SPICE Model generated by Murata Manufacturing Co., Ltd.
* Copyright(C) Murata Manufacturing Co., Ltd.
* Description :1608M(0603)/X7R(-55to125[deg])/1.50e-02[uF]/50[V]
* Murata P/N :GCE188R71H153MA01
* Property : C = 1.50e-02[uF]
*----------------------------------------------------------------------
* Applicable Conditions:
*   Frequency Range = 100[kHz]-6[GHz]
*   Temperature = 25 degC
*   DC Bias Voltage = 0V
*   Small Signal Operation
*----------------------------------------------------------------------
.SUBCKT GCE188R71H153MA01 Port1 Port2
C01 Port1 N01 1.50e-08
R01 Port1 N01 1.00e+10
L02 N01 N02 2.18e-10
R03 N02 N03 4.78e-02
C04 N03 N04 6.89e-07
R04 N03 N04 1.46e+01
C05 N04 N05 1.69e-06
R05 N04 N05 9.20e-01
C06 N05 N06 1.28e-06
R06 N05 N06 2.38e-01
C07 N06 N07 1.25e-06
R07 N06 N07 4.94e-02
L08 N07 N08 9.14e-11
R08 N07 N08 1.83e-01
C09 N08 N09 1.10e-07
L09 N08 N09 1.66e-11
R09 N08 N09 4.72e-02
C10 N09 N10 2.54e-08
L10 N09 N10 3.30e-11
R10 N09 N10 9.64e-02
C11 N10 N11 4.59e-08
L11 N10 N11 5.67e-12
R11 N10 N11 2.58e-02
C12 N11 N12 8.37e-12
L12 N11 N12 7.06e-11
R12 N11 N12 1.14e+01
C13 N12 Port2 3.50e-12
L13 N12 Port2 8.98e-11
R13 N12 Port2 1.77e+01
.ENDS GCE188R71H153MA01
*----------------------------------------------------------------------
* SPICE Model generated by Murata Manufacturing Co., Ltd.
* Copyright(C) Murata Manufacturing Co., Ltd.
* Description :1608M(0603)/X7R(-55to125[deg])/1.80e-03[uF]/50[V]
* Murata P/N :GCE188R71H182KA01
* Property : C = 1.80e-03[uF]
*----------------------------------------------------------------------
* Applicable Conditions:
*   Frequency Range = 100[kHz]-6[GHz]
*   Temperature = 25 degC
*   DC Bias Voltage = 0V
*   Small Signal Operation
*----------------------------------------------------------------------
.SUBCKT GCE188R71H182KA01 Port1 Port2
C01 Port1 N01 1.91e-09
R01 Port1 N01 1.00e+10
L02 N01 N02 1.97e-10
R03 N02 N03 2.18e-01
C04 N03 N04 2.92e-08
R04 N03 N04 8.63e+01
C05 N04 N05 1.92e-07
R05 N04 N05 1.16e+00
C06 N05 N06 5.72e-08
R06 N05 N06 5.18e-01
C07 N06 N07 3.36e-08
R07 N06 N07 1.05e-01
C08 N07 N08 1.42e-07
R08 N07 N08 3.31e-03
C09 N08 N09 1.19e-09
L09 N08 N09 3.36e-11
R09 N08 N09 2.48e-01
C10 N09 N10 1.07e-11
L10 N09 N10 2.04e-10
R10 N09 N10 3.43e+00
C11 N10 Port2 3.48e-12
L11 N10 Port2 1.14e-10
R11 N10 Port2 1.45e+01
.ENDS GCE188R71H182KA01
*----------------------------------------------------------------------
* SPICE Model generated by Murata Manufacturing Co., Ltd.
* Copyright(C) Murata Manufacturing Co., Ltd.
* Description :1608M(0603)/X7R(-55to125[deg])/1.80e-02[uF]/50[V]
* Murata P/N :GCE188R71H183KA01
* Property : C = 1.80e-02[uF]
*----------------------------------------------------------------------
* Applicable Conditions:
*   Frequency Range = 100[kHz]-6[GHz]
*   Temperature = 25 degC
*   DC Bias Voltage = 0V
*   Small Signal Operation
*----------------------------------------------------------------------
.SUBCKT GCE188R71H183KA01 Port1 Port2
C01 Port1 N01 1.79e-08
R01 Port1 N01 1.00e+10
L02 N01 N02 2.43e-10
R03 N02 N03 4.00e-02
C04 N03 N04 8.78e-07
R04 N03 N04 8.40e+00
C05 N04 N05 1.80e-06
R05 N04 N05 4.92e-01
C06 N05 N06 1.69e-06
R06 N05 N06 1.17e-01
C07 N06 N07 1.59e-06
R07 N06 N07 3.29e-02
L08 N07 N08 1.09e-10
R08 N07 N08 1.86e-01
C09 N08 N09 1.14e-07
L09 N08 N09 2.03e-11
R09 N08 N09 5.52e-02
C10 N09 N10 2.80e-08
L10 N09 N10 3.89e-11
R10 N09 N10 9.99e-02
C11 N10 Port2 4.40e-12
L11 N10 Port2 8.64e-11
R11 N10 Port2 1.08e+01
.ENDS GCE188R71H183KA01
*----------------------------------------------------------------------
* SPICE Model generated by Murata Manufacturing Co., Ltd.
* Copyright(C) Murata Manufacturing Co., Ltd.
* Description :1608M(0603)/X7R(-55to125[deg])/1.80e-02[uF]/50[V]
* Murata P/N :GCE188R71H183MA01
* Property : C = 1.80e-02[uF]
*----------------------------------------------------------------------
* Applicable Conditions:
*   Frequency Range = 100[kHz]-6[GHz]
*   Temperature = 25 degC
*   DC Bias Voltage = 0V
*   Small Signal Operation
*----------------------------------------------------------------------
.SUBCKT GCE188R71H183MA01 Port1 Port2
C01 Port1 N01 1.79e-08
R01 Port1 N01 1.00e+10
L02 N01 N02 2.43e-10
R03 N02 N03 4.00e-02
C04 N03 N04 8.78e-07
R04 N03 N04 8.40e+00
C05 N04 N05 1.80e-06
R05 N04 N05 4.92e-01
C06 N05 N06 1.69e-06
R06 N05 N06 1.17e-01
C07 N06 N07 1.59e-06
R07 N06 N07 3.29e-02
L08 N07 N08 1.09e-10
R08 N07 N08 1.86e-01
C09 N08 N09 1.14e-07
L09 N08 N09 2.03e-11
R09 N08 N09 5.52e-02
C10 N09 N10 2.80e-08
L10 N09 N10 3.89e-11
R10 N09 N10 9.99e-02
C11 N10 Port2 4.40e-12
L11 N10 Port2 8.64e-11
R11 N10 Port2 1.08e+01
.ENDS GCE188R71H183MA01
*----------------------------------------------------------------------
* SPICE Model generated by Murata Manufacturing Co., Ltd.
* Copyright(C) Murata Manufacturing Co., Ltd.
* Description :1608M(0603)/X7R(-55to125[deg])/2.20e-03[uF]/50[V]
* Murata P/N :GCE188R71H222KA01
* Property : C = 2.20e-03[uF]
*----------------------------------------------------------------------
* Applicable Conditions:
*   Frequency Range = 100[kHz]-6[GHz]
*   Temperature = 25 degC
*   DC Bias Voltage = 0V
*   Small Signal Operation
*----------------------------------------------------------------------
.SUBCKT GCE188R71H222KA01 Port1 Port2
C01 Port1 N01 2.30e-09
R01 Port1 N01 1.00e+10
L02 N01 N02 1.89e-10
R03 N02 N03 1.63e-01
C04 N03 N04 3.13e-08
R04 N03 N04 1.31e+02
C05 N04 N05 1.44e-07
R05 N04 N05 1.40e+00
C06 N05 N06 8.37e-08
R06 N05 N06 2.98e-01
C07 N06 N07 3.82e-08
R07 N06 N07 7.92e-02
L08 N07 N08 3.97e-11
R08 N07 N08 3.09e-01
C09 N08 N09 2.65e-08
L09 N08 N09 5.99e-12
R09 N08 N09 5.39e-02
C10 N09 N10 2.08e-09
L10 N09 N10 2.80e-11
R10 N09 N10 2.00e-01
C11 N10 N11 1.97e-11
L11 N10 N11 1.30e-10
R11 N10 N11 2.59e+00
C12 N11 Port2 2.81e-12
L12 N11 Port2 1.11e-10
R12 N11 Port2 2.41e+01
.ENDS GCE188R71H222KA01
*----------------------------------------------------------------------
* SPICE Model generated by Murata Manufacturing Co., Ltd.
* Copyright(C) Murata Manufacturing Co., Ltd.
* Description :1608M(0603)/X7R(-55to125[deg])/2.20e-02[uF]/50[V]
* Murata P/N :GCE188R71H223KA01
* Property : C = 2.20e-02[uF]
*----------------------------------------------------------------------
* Applicable Conditions:
*   Frequency Range = 100[kHz]-6[GHz]
*   Temperature = 25 degC
*   DC Bias Voltage = 0V
*   Small Signal Operation
*----------------------------------------------------------------------
.SUBCKT GCE188R71H223KA01 Port1 Port2
C01 Port1 N01 2.09e-08
R01 Port1 N01 1.00e+10
L02 N01 N02 1.57e-10
R03 N02 N03 5.43e-02
C04 N03 N04 1.10e-06
R04 N03 N04 2.93e+00
C05 N04 N05 1.33e-06
R05 N04 N05 2.44e-01
C06 N05 N06 1.29e-06
R06 N05 N06 2.87e-02
L07 N06 N07 1.40e-10
R07 N06 N07 2.09e-01
C08 N07 N08 9.74e-08
L08 N07 N08 2.62e-11
R08 N07 N08 5.64e-02
C09 N08 N09 2.72e-08
L09 N08 N09 4.42e-11
R09 N08 N09 9.63e-02
C10 N09 N10 5.72e-11
L10 N09 N10 9.79e-12
R10 N09 N10 4.03e+00
C11 N10 Port2 2.34e-12
L11 N10 Port2 1.33e-10
R11 N10 Port2 2.48e+01
.ENDS GCE188R71H223KA01
*----------------------------------------------------------------------
* SPICE Model generated by Murata Manufacturing Co., Ltd.
* Copyright(C) Murata Manufacturing Co., Ltd.
* Description :1608M(0603)/X7R(-55to125[deg])/2.20e-02[uF]/50[V]
* Murata P/N :GCE188R71H223MA01
* Property : C = 2.20e-02[uF]
*----------------------------------------------------------------------
* Applicable Conditions:
*   Frequency Range = 100[kHz]-6[GHz]
*   Temperature = 25 degC
*   DC Bias Voltage = 0V
*   Small Signal Operation
*----------------------------------------------------------------------
.SUBCKT GCE188R71H223MA01 Port1 Port2
C01 Port1 N01 2.09e-08
R01 Port1 N01 1.00e+10
L02 N01 N02 1.57e-10
R03 N02 N03 5.43e-02
C04 N03 N04 1.10e-06
R04 N03 N04 2.93e+00
C05 N04 N05 1.33e-06
R05 N04 N05 2.44e-01
C06 N05 N06 1.29e-06
R06 N05 N06 2.87e-02
L07 N06 N07 1.40e-10
R07 N06 N07 2.09e-01
C08 N07 N08 9.74e-08
L08 N07 N08 2.62e-11
R08 N07 N08 5.64e-02
C09 N08 N09 2.72e-08
L09 N08 N09 4.42e-11
R09 N08 N09 9.63e-02
C10 N09 N10 5.72e-11
L10 N09 N10 9.79e-12
R10 N09 N10 4.03e+00
C11 N10 Port2 2.34e-12
L11 N10 Port2 1.33e-10
R11 N10 Port2 2.48e+01
.ENDS GCE188R71H223MA01
*----------------------------------------------------------------------
* SPICE Model generated by Murata Manufacturing Co., Ltd.
* Copyright(C) Murata Manufacturing Co., Ltd.
* Description :1608M(0603)/X7R(-55to125[deg])/2.70e-03[uF]/50[V]
* Murata P/N :GCE188R71H272KA01
* Property : C = 2.70e-03[uF]
*----------------------------------------------------------------------
* Applicable Conditions:
*   Frequency Range = 100[kHz]-6[GHz]
*   Temperature = 25 degC
*   DC Bias Voltage = 0V
*   Small Signal Operation
*----------------------------------------------------------------------
.SUBCKT GCE188R71H272KA01 Port1 Port2
C01 Port1 N01 2.85e-09
R01 Port1 N01 1.00e+10
L02 N01 N02 2.12e-10
R03 N02 N03 1.41e-01
C04 N03 N04 5.37e-08
R04 N03 N04 5.65e+01
C05 N04 N05 2.12e-07
R05 N04 N05 9.15e-01
C06 N05 N06 1.24e-07
R06 N05 N06 2.55e-01
C07 N06 N07 6.08e-08
R07 N06 N07 6.89e-02
L08 N07 N08 7.57e-11
R08 N07 N08 3.97e-01
C09 N08 N09 1.42e-08
L09 N08 N09 1.57e-11