*----------------------------------------------------------------------
* SPICE Model generated by Murata Manufacturing Co., Ltd.
* Copyright(C) Murata Manufacturing Co., Ltd.
* Description :1005M(0402)/C0G(-55to125[deg])/1.00e-05[uF]/50[V]
* Murata P/N :GCH1555C1H100JE01
* Property : C = 1.00e-05[uF]
*----------------------------------------------------------------------
* Applicable Conditions:
*   Frequency Range = 100[MHz]-9[GHz]
*   Temperature = 25 degC
*   DC Bias Voltage = 0V
*   Small Signal Operation
*----------------------------------------------------------------------
.SUBCKT GCH1555C1H100JE01 Port1 Port2
C01 Port1 N01 1.00e-11
R01 Port1 N01 1.00e+11
L02 N01 N02 2.83e-10
R03 N02 N03 1.11e-01
L04 N03 N04 1.32e-11
R04 N03 N04 2.11e-01
L05 N04 N05 3.26e-11
R05 N04 N05 8.18e-02
C06 N05 N06 3.81e-11
L06 N05 N06 2.36e-11
R06 N05 N06 5.83e+00
C07 N06 Port2 9.48e-12
L07 N06 Port2 2.70e-11
R07 N06 Port2 4.13e+00
.ENDS GCH1555C1H100JE01
*----------------------------------------------------------------------
* SPICE Model generated by Murata Manufacturing Co., Ltd.
* Copyright(C) Murata Manufacturing Co., Ltd.
* Description :1005M(0402)/C0G(-55to125[deg])/1.00e-04[uF]/50[V]
* Murata P/N :GCH1555C1H101JE01
* Property : C = 1.00e-04[uF]
*----------------------------------------------------------------------
* Applicable Conditions:
*   Frequency Range = 100[MHz]-9[GHz]
*   Temperature = 25 degC
*   DC Bias Voltage = 0V
*   Small Signal Operation
*----------------------------------------------------------------------
.SUBCKT GCH1555C1H101JE01 Port1 Port2
C01 Port1 N01 1.00e-10
R01 Port1 N01 1.00e+11
L02 N01 N02 2.65e-10
R03 N02 N03 7.87e-02
L04 N03 N04 1.32e-11
R04 N03 N04 6.83e-02
L05 N04 N05 1.76e-11
R05 N04 N05 2.48e-02
C06 N05 N06 1.08e-09
L06 N05 N06 6.64e-12
R06 N05 N06 4.45e-01
C07 N06 N07 1.58e-10
L07 N06 N07 1.89e-11
R07 N06 N07 1.24e+00
C08 N07 N08 2.89e-11
L08 N07 N08 2.30e-11
R08 N07 N08 1.17e+00
C09 N08 Port2 8.66e-12
L09 N08 Port2 2.98e-11
R09 N08 Port2 1.00e+05
.ENDS GCH1555C1H101JE01
*----------------------------------------------------------------------
* SPICE Model generated by Murata Manufacturing Co., Ltd.
* Copyright(C) Murata Manufacturing Co., Ltd.
* Description :1005M(0402)/C0G(-55to125[deg])/1.00e-03[uF]/50[V]
* Murata P/N :GCH1555C1H102JE01
* Property : C = 1.00e-03[uF]
*----------------------------------------------------------------------
* Applicable Conditions:
*   Frequency Range = 1000[kHz]-6[GHz]
*   Temperature = 25 degC
*   DC Bias Voltage = 0V
*   Small Signal Operation
*----------------------------------------------------------------------
.SUBCKT GCH1555C1H102JE01 Port1 Port2
C01 Port1 N01 9.77e-10
R01 Port1 N01 1.00e+11
L02 N01 N02 2.14e-10
R03 N02 N03 6.26e-03
L04 N03 N04 4.62e-11
R04 N03 N04 5.11e-01
L05 N04 N05 1.65e-11
R05 N04 N05 2.04e-02
L06 N05 N06 8.17e-11
R06 N05 N06 1.18e-02
C07 N06 N07 5.96e-09
L07 N06 N07 1.38e-11
R07 N06 N07 3.31e-01
C08 N07 N08 2.18e-09
L08 N07 N08 1.73e-11
R08 N07 N08 5.34e-01
C09 N08 N09 7.85e-09
L09 N08 N09 2.16e-12
R09 N08 N09 6.48e-02
C10 N09 N10 2.61e-09
L10 N09 N10 4.42e-12
R10 N09 N10 1.43e-01
C11 N10 Port2 5.32e-11
L11 N10 Port2 5.05e-12
R11 N10 Port2 4.06e-01
.ENDS GCH1555C1H102JE01
*----------------------------------------------------------------------
* SPICE Model generated by Murata Manufacturing Co., Ltd.
* Copyright(C) Murata Manufacturing Co., Ltd.
* Description :1005M(0402)/C0G(-55to125[deg])/1.50e-05[uF]/50[V]
* Murata P/N :GCH1555C1H150JE01
* Property : C = 1.50e-05[uF]
*----------------------------------------------------------------------
* Applicable Conditions:
*   Frequency Range = 100[MHz]-9[GHz]
*   Temperature = 25 degC
*   DC Bias Voltage = 0V
*   Small Signal Operation
*----------------------------------------------------------------------
.SUBCKT GCH1555C1H150JE01 Port1 Port2
C01 Port1 N01 1.50e-11
R01 Port1 N01 1.00e+11
L02 N01 N02 2.37e-10
R03 N02 N03 1.06e-01
L04 N03 N04 2.01e-11
R04 N03 N04 4.00e-01
L05 N04 N05 3.51e-11
R05 N04 N05 1.05e-01
C06 N05 N06 1.06e-10
L06 N05 N06 1.01e-11
R06 N05 N06 1.61e+00
C07 N06 N07 2.87e-11
L07 N06 N07 1.18e-11
R07 N06 N07 2.13e+00
C08 N07 Port2 2.32e-12
L08 N07 Port2 8.88e-11
R08 N07 Port2 1.00e+05
.ENDS GCH1555C1H150JE01
*----------------------------------------------------------------------
* SPICE Model generated by Murata Manufacturing Co., Ltd.
* Copyright(C) Murata Manufacturing Co., Ltd.
* Description :1005M(0402)/C0G(-55to125[deg])/1.50e-04[uF]/50[V]
* Murata P/N :GCH1555C1H151JE01
* Property : C = 1.50e-04[uF]
*----------------------------------------------------------------------
* Applicable Conditions:
*   Frequency Range = 100[MHz]-9[GHz]
*   Temperature = 25 degC
*   DC Bias Voltage = 0V
*   Small Signal Operation
*----------------------------------------------------------------------
.SUBCKT GCH1555C1H151JE01 Port1 Port2
C01 Port1 N01 1.50e-10
R01 Port1 N01 1.00e+11
L02 N01 N02 1.49e-10
R03 N02 N03 8.71e-02
L04 N03 N04 1.15e-11
R04 N03 N04 4.61e-02
C05 N04 N05 1.47e-09
L05 N04 N05 7.15e-12
R05 N04 N05 2.75e-01
C06 N05 N06 2.51e-10
L06 N05 N06 1.73e-11
R06 N05 N06 8.55e-01
C07 N06 N07 6.99e-12
L07 N06 N07 4.64e-11
R07 N06 N07 1.71e+00
C08 N07 Port2 1.46e-12
L08 N07 Port2 1.51e-10
R08 N07 Port2 1.00e+05
.ENDS GCH1555C1H151JE01
*----------------------------------------------------------------------
* SPICE Model generated by Murata Manufacturing Co., Ltd.
* Copyright(C) Murata Manufacturing Co., Ltd.
* Description :1005M(0402)/C0G(-55to125[deg])/1.00e-06[uF]/50[V]
* Murata P/N :GCH1555C1H1R0CE01
* Property : C = 1.00e-06[uF]
*----------------------------------------------------------------------
* Applicable Conditions:
*   Frequency Range = 100[MHz]-9[GHz]
*   Temperature = 25 degC
*   DC Bias Voltage = 0V
*   Small Signal Operation
*----------------------------------------------------------------------
.SUBCKT GCH1555C1H1R0CE01 Port1 Port2
C01 Port1 N01 1.00e-12
R01 Port1 N01 1.00e+11
L02 N01 N02 4.16e-10
R03 N02 N03 3.72e-01
L04 N03 N04 3.14e-11
R04 N03 N04 1.81e+00
L05 N04 Port2 1.03e-10
R05 N04 Port2 2.69e-01
.ENDS GCH1555C1H1R0CE01
*----------------------------------------------------------------------
* SPICE Model generated by Murata Manufacturing Co., Ltd.
* Copyright(C) Murata Manufacturing Co., Ltd.
* Description :1005M(0402)/C0G(-55to125[deg])/2.20e-05[uF]/50[V]
* Murata P/N :GCH1555C1H220JE01
* Property : C = 2.20e-05[uF]
*----------------------------------------------------------------------
* Applicable Conditions:
*   Frequency Range = 100[MHz]-9[GHz]
*   Temperature = 25 degC
*   DC Bias Voltage = 0V
*   Small Signal Operation
*----------------------------------------------------------------------
.SUBCKT GCH1555C1H220JE01 Port1 Port2
C01 Port1 N01 2.20e-11
R01 Port1 N01 1.00e+11
L02 N01 N02 1.70e-10
R03 N02 N03 1.01e-01
L04 N03 N04 2.01e-11
R04 N03 N04 1.48e-01
L05 N04 N05 2.75e-11
R05 N04 N05 3.67e-02
C06 N05 N06 1.33e-10
L06 N05 N06 1.24e-11
R06 N05 N06 1.89e+00
C07 N06 N07 1.44e-11
L07 N06 N07 3.19e-11
R07 N06 N07 4.74e+00
C08 N07 Port2 1.91e-12
L08 N07 Port2 1.38e-10
R08 N07 Port2 1.00e+05
.ENDS GCH1555C1H220JE01
*----------------------------------------------------------------------
* SPICE Model generated by Murata Manufacturing Co., Ltd.
* Copyright(C) Murata Manufacturing Co., Ltd.
* Description :1005M(0402)/C0G(-55to125[deg])/2.20e-04[uF]/50[V]
* Murata P/N :GCH1555C1H221JE01
* Property : C = 2.20e-04[uF]
*----------------------------------------------------------------------
* Applicable Conditions:
*   Frequency Range = 100[MHz]-9[GHz]
*   Temperature = 25 degC
*   DC Bias Voltage = 0V
*   Small Signal Operation
*----------------------------------------------------------------------
.SUBCKT GCH1555C1H221JE01 Port1 Port2
C01 Port1 N01 2.20e-10
R01 Port1 N01 1.00e+11
L02 N01 N02 2.06e-10
R03 N02 N03 9.50e-02
L04 N03 N04 4.84e-11
R04 N03 N04 1.04e+00
C05 N04 N05 2.62e-09
L05 N04 N05 5.20e-12
R05 N04 N05 1.34e-01
C06 N05 N06 3.41e-10
L06 N05 N06 1.62e-11
R06 N05 N06 5.62e-01
C07 N06 N07 6.81e-11
L07 N06 N07 5.33e-12
R07 N06 N07 1.14e+00
C08 N07 Port2 1.66e-12
L08 N07 Port2 1.30e-10
R08 N07 Port2 8.25e+08
.ENDS GCH1555C1H221JE01
*----------------------------------------------------------------------
* SPICE Model generated by Murata Manufacturing Co., Ltd.
* Copyright(C) Murata Manufacturing Co., Ltd.
* Description :1005M(0402)/C0G(-55to125[deg])/2.00e-06[uF]/50[V]
* Murata P/N :GCH1555C1H2R0CE01
* Property : C = 2.00e-06[uF]
*----------------------------------------------------------------------
* Applicable Conditions:
*   Frequency Range = 100[MHz]-9[GHz]
*   Temperature = 25 degC
*   DC Bias Voltage = 0V
*   Small Signal Operation
*----------------------------------------------------------------------
.SUBCKT GCH1555C1H2R0CE01 Port1 Port2
C01 Port1 N01 2.00e-12
R01 Port1 N01 1.00e+11
L02 N01 N02 3.36e-10
R03 N02 N03 2.09e-01
L04 N03 N04 2.51e-11
R04 N03 N04 1.31e+00
L05 N04 Port2 2.53e-11
R05 N04 Port2 1.59e-01
.ENDS GCH1555C1H2R0CE01
*----------------------------------------------------------------------
* SPICE Model generated by Murata Manufacturing Co., Ltd.
* Copyright(C) Murata Manufacturing Co., Ltd.
* Description :1005M(0402)/C0G(-55to125[deg])/3.30e-05[uF]/50[V]
* Murata P/N :GCH1555C1H330JE01
* Property : C = 3.30e-05[uF]
*----------------------------------------------------------------------
* Applicable Conditions:
*   Frequency Range = 100[MHz]-9[GHz]
*   Temperature = 25 degC
*   DC Bias Voltage = 0V
*   Small Signal Operation
*----------------------------------------------------------------------
.SUBCKT GCH1555C1H330JE01 Port1 Port2
C01 Port1 N01 3.30e-11
R01 Port1 N01 1.00e+11
L02 N01 N02 2.32e-10
R03 N02 N03 8.05e-02
L04 N03 N04 1.24e-11
R04 N03 N04 1.42e-01
L05 N04 N05 3.92e-11
R05 N04 N05 8.58e-02
C06 N05 N06 1.81e-10
L06 N05 N06 1.36e-11
R06 N05 N06 1.18e+00
C07 N06 N07 7.62e-11
L07 N06 N07 1.08e-11
R07 N06 N07 1.34e+00
C08 N07 N08 5.35e-11
L08 N07 N08 7.82e-12
R08 N07 N08 1.22e+00
C09 N08 Port2 2.95e-12
L09 N08 Port2 7.19e-11
R09 N08 Port2 1.00e+05
.ENDS GCH1555C1H330JE01
*----------------------------------------------------------------------
* SPICE Model generated by Murata Manufacturing Co., Ltd.
* Copyright(C) Murata Manufacturing Co., Ltd.
* Description :1005M(0402)/C0G(-55to125[deg])/3.30e-04[uF]/50[V]
* Murata P/N :GCH1555C1H331JE01
* Property : C = 3.30e-04[uF]
*----------------------------------------------------------------------
* Applicable Conditions:
*   Frequency Range = 100[MHz]-9[GHz]
*   Temperature = 25 degC
*   DC Bias Voltage = 0V
*   Small Signal Operation
*----------------------------------------------------------------------
.SUBCKT GCH1555C1H331JE01 Port1 Port2
C01 Port1 N01 3.30e-10
R01 Port1 N01 1.00e+11
L02 N01 N02 1.98e-10
R03 N02 N03 7.51e-02
L04 N03 N04 6.24e-11
R04 N03 N04 9.54e-01
C05 N04 N05 4.13e-09
L05 N04 N05 5.92e-12
R05 N04 N05 1.89e-01
C06 N05 N06 7.02e-10
L06 N05 N06 1.50e-11
R06 N05 N06 4.64e-01
C07 N06 N07 6.03e-11
L07 N06 N07 5.81e-12
R07 N06 N07 7.78e-01
C08 N07 Port2 2.33e-12
L08 N07 Port2 1.04e-10
R08 N07 Port2 1.00e+05
.ENDS GCH1555C1H331JE01
*----------------------------------------------------------------------
* SPICE Model generated by Murata Manufacturing Co., Ltd.
* Copyright(C) Murata Manufacturing Co., Ltd.
* Description :1005M(0402)/C0G(-55to125[deg])/3.00e-06[uF]/50[V]
* Murata P/N :GCH1555C1H3R0CE01
* Property : C = 3.00e-06[uF]
*----------------------------------------------------------------------
* Applicable Conditions:
*   Frequency Range = 100[MHz]-9[GHz]
*   Temperature = 25 degC
*   DC Bias Voltage = 0V
*   Small Signal Operation
*----------------------------------------------------------------------
.SUBCKT GCH1555C1H3R0CE01 Port1 Port2
C01 Port1 N01 3.00e-12
R01 Port1 N01 1.00e+11
L02 N01 N02 3.10e-10
R03 N02 N03 1.72e-01
L04 N03 N04 2.20e-11
R04 N03 N04 1.03e+00
L05 N04 Port2 2.59e-11
R05 N04 Port2 1.42e-01
.ENDS GCH1555C1H3R0CE01
*----------------------------------------------------------------------
* SPICE Model generated by Murata Manufacturing Co., Ltd.
* Copyright(C) Murata Manufacturing Co., Ltd.
* Description :1005M(0402)/C0G(-55to125[deg])/4.70e-05[uF]/50[V]
* Murata P/N :GCH1555C1H470JE01
* Property : C = 4.70e-05[uF]
*----------------------------------------------------------------------
* Applicable Conditions:
*   Frequency Range = 100[MHz]-9[GHz]
*   Temperature = 25 degC
*   DC Bias Voltage = 0V
*   Small Signal Operation
*----------------------------------------------------------------------
.SUBCKT GCH1555C1H470JE01 Port1 Port2
C01 Port1 N01 4.70e-11
R01 Port1 N01 1.00e+11
L02 N01 N02 1.00e-10
R03 N02 N03 7.44e-02
L04 N03 N04 3.86e-11
R04 N03 N04 8.55e-02
L05 N04 N05 2.48e-12
R05 N04 N05 5.61e-02
C06 N05 N06 4.56e-10
L06 N05 N06 7.45e-12
R06 N05 N06 7.46e-01
C07 N06 N07 6.40e-11
L07 N06 N07 2.18e-11
R07 N06 N07 2.38e+00
C08 N07 N08 1.34e-11
L08 N07 N08 3.05e-11
R08 N07 N08 3.04e+00
C09 N08 Port2 1.14e-12
L09 N08 Port2 1.82e-10
R09 N08 Port2 1.00e+05
.ENDS GCH1555C1H470JE01
*----------------------------------------------------------------------
* SPICE Model generated by Murata Manufacturing Co., Ltd.
* Copyright(C) Murata Manufacturing Co., Ltd.
* Description :1005M(0402)/C0G(-55to125[deg])/4.70e-04[uF]/50[V]
* Murata P/N :GCH1555C1H471JE01
* Property : C = 4.70e-04[uF]
*----------------------------------------------------------------------
* Applicable Conditions:
*   Frequency Range = 100[MHz]-9[GHz]
*   Temperature = 25 degC
*   DC Bias Voltage = 0V
*   Small Signal Operation
*----------------------------------------------------------------------
.SUBCKT GCH1555C1H471JE01 Port1 Port2
C01 Port1 N01 4.70e-10
R01 Port1 N01 1.00e+11
L02 N01 N02 1.30e-10
R03 N02 N03 5.29e-02
L04 N03 N04 7.93e-11
R04 N03 N04 6.77e-01
C05 N04 N05 6.72e-09
L05 N04 N05 5.61e-12
R05 N04 N05 2.07e-01
C06 N05 N06 1.85e-09
L06 N05 N06 9.35e-12
R06 N05 N06 4.02e-01
C07 N06 N07 7.69e-11
L07 N06 N07 4.58e-12
R07 N06 N07 1.64e+00
C08 N07 Port2 1.50e-12
L08 N07 Port2 1.26e-10
R08 N07 Port2 1.00e+05
.ENDS GCH1555C1H471JE01
*----------------------------------------------------------------------
* SPICE Model generated by Murata Manufacturing Co., Ltd.
* Copyright(C) Murata Manufacturing Co., Ltd.
* Description :1005M(0402)/C0G(-55to125[deg])/4.00e-06[uF]/50[V]
* Murata P/N :GCH1555C1H4R0CE01
* Property : C = 4.00e-06[uF]
*----------------------------------------------------------------------
* Applicable Conditions:
*   Frequency Range = 100[MHz]-9[GHz]
*   Temperature = 25 degC
*   DC Bias Voltage = 0V
*   Small Signal Operation
*----------------------------------------------------------------------
.SUBCKT GCH1555C1H4R0CE01 Port1 Port2
C01 Port1 N01 4.00e-12
R01 Port1 N01 1.00e+11
L02 N01 N02 3.11e-10
R03 N02 N03 1.42e-01
L04 N03 N04 2.29e-11
R04 N03 N04 1.09e+00
L05 N04 Port2 2.99e-11
R05 N04 Port2 1.41e-01
.ENDS GCH1555C1H4R0CE01
*----------------------------------------------------------------------
* SPICE Model generated by Murata Manufacturing Co., Ltd.
* Copyright(C) Murata Manufacturing Co., Ltd.
* Description :1005M(0402)/C0G(-55to125[deg])/5.00e-06[uF]/50[V]
* Murata P/N :GCH1555C1H5R0CE01
* Property : C = 5.00e-06[uF]
*----------------------------------------------------------------------
* Applicable Conditions:
*   Frequency Range = 100[MHz]-9[GHz]
*   Temperature = 25 degC
*   DC Bias Voltage = 0V
*   Small Signal Operation
*----------------------------------------------------------------------
.SUBCKT GCH1555C1H5R0CE01 Port1 Port2
C01 Port1 N01 5.00e-12
R01 Port1 N01 1.00e+11
L02 N01 N02 3.14e-10
R03 N02 N03 1.37e-01
L04 N03 N04 2.56e-11
R04 N03 N04 6.39e-01
L05 N04 N05 2.33e-11
R05 N04 N05 8.36e-02
C06 N05 Port2 3.68e-11
L06 N05 Port2 1.13e-11
R06 N05 Port2 3.67e+00
.ENDS GCH1555C1H5R0CE01
*----------------------------------------------------------------------
* SPICE Model generated by Murata Manufacturing Co., Ltd.
* Copyright(C) Murata Manufacturing Co., Ltd.
* Description :1005M(0402)/C0G(-55to125[deg])/6.80e-05[uF]/50[V]
* Murata P/N :GCH1555C1H680JE01
* Property : C = 6.80e-05[uF]
*----------------------------------------------------------------------
* Applicable Conditions:
*   Frequency Range = 100[MHz]-9[GHz]
*   Temperature = 25 degC
*   DC Bias Voltage = 0V
*   Small Signal Operation
*----------------------------------------------------------------------
.SUBCKT GCH1555C1H680JE01 Port1 Port2
C01 Port1 N01 6.80e-11
R01 Port1 N01 1.00e+11
L02 N01 N02 2.48e-10
R03 N02 N03 1.27e-01
L04 N03 N04 8.27e-12
R04 N03 N04 9.27e-02
L05 N04 N05 2.94e-11
R05 N04 N05 6.90e-02
C06 N05 N06 6.75e-10
L06 N05 N06 5.85e-12
R06 N05 N06 3.14e-01
C07 N06 N07 7.64e-11
L07 N06 N07 2.04e-11
R07 N06 N07 1.38e+00
C08 N07 N08 2.68e-11
L08 N07 N08 1.52e-11
R08 N07 N08 1.25e+00
C09 N08 Port2 2.46e-12
L09 N08 Port2 8.79e-11
R09 N08 Port2 1.00e+05
.ENDS GCH1555C1H680JE01
*----------------------------------------------------------------------
* SPICE Model generated by Murata Manufacturing Co., Ltd.
* Copyright(C) Murata Manufacturing Co., Ltd.
* Description :1005M(0402)/C0G(-55to125[deg])/6.80e-04[uF]/50[V]
* Murata P/N :GCH1555C1H681JE01
* Property : C = 6.80e-04[uF]
*----------------------------------------------------------------------
* Applicable Conditions:
*   Frequency Range = 100[MHz]-9[GHz]
*   Temperature = 25 degC
*   DC Bias Voltage = 0V
*   Small Signal Operation
*----------------------------------------------------------------------
.SUBCKT GCH1555C1H681JE01 Port1 Port2
C01 Port1 N01 6.80e-10
R01 Port1 N01 1.00e+11
L02 N01 N02 2.79e-10
R03 N02 N03 5.20e-02
L04 N03 N04 3.65e-11
R04 N03 N04 7.72e-01
C05 N04 N05 5.11e-09
L05 N04 N05 9.70e-12
R05 N04 N05 2.66e-01
C06 N05 N06 1.10e-09
L06 N05 N06 1.90e-11
R06 N05 N06 5.34e-01
C07 N06 N07 6.62e-10
L07 N06 N07 9.26e-12
R07 N06 N07 2.18e-01
C08 N07 Port2 6.55e-11
L08 N07 Port2 3.52e-12
R08 N07 Port2 6.60e-01
.ENDS GCH1555C1H681JE01
*----------------------------------------------------------------------
* SPICE Model generated by Murata Manufacturing Co., Ltd.
* Copyright(C) Murata Manufacturing Co., Ltd.
* Description :1005M(0402)/C0G(-55to125[deg])/6.00e-06[uF]/50[V]
* Murata P/N :GCH1555C1H6R0DE01
* Property : C = 6.00e-06[uF]
*----------------------------------------------------------------------
* Applicable Conditions:
*   Frequency Range = 100[MHz]-9[GHz]
*   Temperature = 25 degC
*   DC Bias Voltage = 0V
*   Small Signal Operation
*----------------------------------------------------------------------
.SUBCKT GCH1555C1H6R0DE01 Port1 Port2
C01 Port1 N01 6.00e-12
R01 Port1 N01 1.00e+11
L02 N01 N02 1.95e-10
R03 N02 N03 1.27e-01
L04 N03 N04 1.90e-11
R04 N03 N04 5.49e-01
L05 N04 N05 2.55e-11
R05 N04 N05 1.29e-01
C06 N05 N06 9.19e-11
L06 N05 N06 5.36e-12
R06 N05 N06 1.38e+00
C07 N06 Port2 1.73e-12
L07 N06 Port2 1.06e-10
R07 N06 Port2 1.00e+05
.ENDS GCH1555C1H6R0DE01
*----------------------------------------------------------------------
* SPICE Model generated by Murata Manufacturing Co., Ltd.
* Copyright(C) Murata Manufacturing Co., Ltd.
* Description :1005M(0402)/C0G(-55to125[deg])/7.00e-06[uF]/50[V]
* Murata P/N :GCH1555C1H7R0DE01
* Property : C = 7.00e-06[uF]
*----------------------------------------------------------------------
* Applicable Conditions:
*   Frequency Range = 100[MHz]-9[GHz]
*   Temperature = 25 degC
*   DC Bias Voltage = 0V
*   Small Signal Operation
*----------------------------------------------------------------------
.SUBCKT GCH1555C1H7R0DE01 Port1 Port2
C01 Port1 N01 7.00e-12
R01 Port1 N01 1.00e+11
L02 N01 N02 3.05e-10
R03 N02 N03 1.10e-01
L04 N03 N04 1.58e-11
R04 N03 N04 3.60e-01
L05 N04 N05 3.57e-11
R05 N04 N05 1.47e-01
C06 N05 N06 2.32e-11
L06 N05 N06 2.57e-11
R06 N05 N06 7.36e+00
C07 N06 Port2 7.27e-11
L07 N06 Port2 4.69e-12
R07 N06 Port2 6.31e-01
.ENDS GCH1555C1H7R0DE01
*----------------------------------------------------------------------
* SPICE Model generated by Murata Manufacturing Co., Ltd.
* Copyright(C) Murata Manufacturing Co., Ltd.
* Description :1005M(0402)/C0G(-55to125[deg])/8.00e-06[uF]/50[V]
* Murata P/N :GCH1555C1H8R0DE01
* Property : C = 8.00e-06[uF]
*----------------------------------------------------------------------
* Applicable Conditions:
*   Frequency Range = 100[MHz]-9[GHz]
*   Temperature = 25 degC
*   DC Bias Voltage = 0V
*   Small Signal Operation
*----------------------------------------------------------------------
.SUBCKT GCH1555C1H8R0DE01 Port1 Port2
C01 Port1 N01 8.00e-12
R01 Port1 N01 1.00e+11
L02 N01 N02 3.21e-10
R03 N02 N03 9.47e-02
L04 N03 N04 2.38e-11
R04 N03 N04 4.47e-01
L05 N04 N05 3.68e-11
R05 N04 N05 8.92e-02
C06 N05 N06 1.47e-10
L06 N05 N06 4.58e-12
R06 N05 N06 1.16e+00
C07 N06 Port2 2.73e-10
L07 N06 Port2 1.27e-12
R07 N06 Port2 2.75e-01
.ENDS GCH1555C1H8R0DE01
*----------------------------------------------------------------------
* SPICE Model generated by Murata Manufacturing Co., Ltd.
* Copyright(C) Murata Manufacturing Co., Ltd.
* Description :1005M(0402)/C0G(-55to125[deg])/9.00e-06[uF]/50[V]
* Murata P/N :GCH1555C1H9R0DE01
* Property : C = 9.00e-06[uF]
*----------------------------------------------------------------------
* Applicable Conditions:
*   Frequency Range = 100[MHz]-9[GHz]
*   Temperature = 25 degC
*   DC Bias Voltage = 0V
*   Small Signal Operation
*----------------------------------------------------------------------
.SUBCKT GCH1555C1H9R0DE01 Port1 Port2
C01 Port1 N01 9.00e-12
R01 Port1 N01 1.00e+11
L02 N01 N02 3.00e-10
R03 N02 N03 1.11e-01
L04 N03 N04 3.73e-11
R04 N03 N04 2.69e+00
L05 N04 N05 4.27e-11
R05 N04 N05 1.72e-01
C06 N05 Port2 5.11e-10
L06 N05 Port2 1.54e-12
R06 N05 Port2 3.68e-01
.ENDS GCH1555C1H9R0DE01
*----------------------------------------------------------------------
* SPICE Model generated by Murata Manufacturing Co., Ltd.
* Copyright(C) Murata Manufacturing Co., Ltd.
* Description :1005M(0402)/X7S(-55to125[deg])/1.00e+00[uF]/10[V]
* Murata P/N :GCH155C71A105KE11
* Property : C = 1.00e+00[uF]
*----------------------------------------------------------------------
* Applicable Conditions:
*   Frequency Range = 100[Hz]-6[GHz]
*   Temperature = 25 degC
*   DC Bias Voltage = 0V
*   Small Signal Operation
*----------------------------------------------------------------------
.SUBCKT GCH155C71A105KE11 Port1 Port2
C01 Port1 N01 7.88e-07
R01 Port1 N01 5.00e+07
L02 N01 N02 1.49e-10
R03 N02 N03 1.48e-02
C04 N03 N04 4.54e-05
R04 N03 N04 5.29e+01
C05 N04 N05 4.23e-05
R05 N04 N05 5.82e+00
C06 N05 N06 3.22e-05
R06 N05 N06 7.32e-01
C07 N06 N07 2.85e-05
R07 N06 N07 9.71e-02
C08 N07 N08 2.57e-05
R08 N07 N08 1.57e-02
L09 N08 N09 2.02e-11
R09 N08 N09 2.29e-01
L10 N09 N10 3.79e-11
R10 N09 N10 8.50e-02
L11 N10 N11 1.23e-10
R11 N10 N11 3.96e-02
C12 N11 N12 1.11e-06
L12 N11 N12 6.06e-11
R12 N11 N12 8.63e-03
C13 N12 Port2 3.74e-12
L13 N12 Port2 6.44e-11
R13 N12 Port2 1.76e+01
.ENDS GCH155C71A105KE11
*----------------------------------------------------------------------
* SPICE Model generated by Murata Manufacturing Co., Ltd.
* Copyright(C) Murata Manufacturing Co., Ltd.
* Description :1005M(0402)/X7R(-55to125[deg])/1.00e-01[uF]/10[V]
* Murata P/N :GCH155R71A104KE01
* Property : C = 1.00e-01[uF]
*----------------------------------------------------------------------
* Applicable Conditions:
*   Frequency Range = 100[kHz]-6[GHz]
*   Temperature = 25 degC
*   DC Bias Voltage = 0V
*   Small Signal Operation
*----------------------------------------------------------------------
.SUBCKT GCH155R71A104KE01 Port1 Port2
C01 Port1 N01 9.21e-08
R01 Port1 N01 5.00e+08
L02 N01 N02 1.65e-10
R03 N02 N03 1.60e-02
C04 N03 N04 1.03e-05
R04 N03 N04 1.55e+00
C05 N04 N05 2.22e-05
R05 N04 N05 3.64e-01
C06 N05 N06 9.91e-06
R06 N05 N06 2.30e-01
C07 N06 N07 7.39e-06
R07 N06 N07 1.13e-01
C08 N07 N08 5.42e-06
R08 N07 N08 1.88e-02
L09 N08 N09 1.77e-11
R09 N08 N09 1.64e-01
L10 N09 N10 8.27e-11
R10 N09 N10 7.30e-02
C11 N10 N11 1.50e-06
L11 N10 N11 6.34e-12
R11 N10 N11 6.64e-03
C12 N11 N12 1.08e-07
L12 N11 N12 4.17e-11
R12 N11 N12 2.66e-02
C13 N12 N13 9.26e-12
L13 N12 N13 3.51e-11
R13 N12 N13 3.86e+00
C14 N13 Port2 1.37e-11
L14 N13 Port2 2.24e-11
R14 N13 Port2 1.00e+05
.ENDS GCH155R71A104KE01
*----------------------------------------------------------------------
* SPICE Model generated by Murata Manufacturing Co., Ltd.
* Copyright(C) Murata Manufacturing Co., Ltd.
* Description :1005M(0402)/X7R(-55to125[deg])/1.00e-01[uF]/16[V]
* Murata P/N :GCH155R71C104KE01
* Property : C = 1.00e-01[uF]
*----------------------------------------------------------------------
* Applicable Conditions:
*   Frequency Range = 100[kHz]-6[GHz]
*   Temperature = 25 degC
*   DC Bias Voltage = 0V
*   Small Signal Operation
*----------------------------------------------------------------------
.SUBCKT GCH155R71C104KE01 Port1 Port2
C01 Port1 N01 1.00e-07
R01 Port1 N01 5.00e+08
L02 N01 N02 2.01e-10
R03 N02 N03 1.42e-02
C04 N03 N04 5.65e-06
R04 N03 N04 3.40e+00
C05 N04 N05 1.30e-05
R05 N04 N05 4.59e-01
C06 N05 N06 8.05e-06
R06 N05 N06 2.27e-01
C07 N06 N07 7.31e-06
R07 N06 N07 3.93e-02
C08 N07 N08 8.17e-06
R08 N07 N08 6.63e-03
L09 N08 N09 2.13e-11
R09 N08 N09 1.49e-01
L10 N09 N10 9.48e-11
R10 N09 N10 6.50e-02
C11 N10 N11 2.58e-06
L11 N10 N11 4.03e-12
R11 N10 N11 5.29e-03
C12 N11 N12 1.54e-07
L12 N11 N12 3.36e-11
R12 N11 N12 2.16e-02
C13 N12 Port2 1.01e-11
L13 N12 Port2 3.08e-11
R13 N12 Port2 3.95e+00
.ENDS GCH155R71C104KE01
*----------------------------------------------------------------------
* SPICE Model generated by Murata Manufacturing Co., Ltd.
* Copyright(C) Murata Manufacturing Co., Ltd.
* Description :1005M(0402)/X7R(-55to125[deg])/2.20e-01[uF]/16[V]
* Murata P/N :GCH155R71C224KE01
* Property : C = 2.20e-01[uF]
*----------------------------------------------------------------------
* Applicable Conditions:
*   Frequency Range = 100[kHz]-6[GHz]
*   Temperature = 25 degC
*   DC Bias Voltage = 0V
*   Small Signal Operation
*----------------------------------------------------------------------
.SUBCKT GCH155R71C224KE01 Port1 Port2
C01 Port1 N01 1.40e-07
R01 Port1 N01 2.27e+08
L02 N01 N02 1.25e-10
R03 N02 N03 1.70e-02
C04 N03 N04 1.14e-06
R04 N03 N04 2.78e+00
C05 N04 N05 2.53e-06
R05 N04 N05 1.10e-01
C06 N05 N06 2.24e-06
R06 N05 N06 1.71e-02
L07 N06 N07 2.36e-11
R07 N06 N07 1.70e-01
L08 N07 N08 1.12e-10
R08 N07 N08 6.50e-02
C09 N08 N09 9.56e-07
L09 N08 N09 1.19e-11
R09 N08 N09 8.34e-03
C10 N09 N10 3.41e-07
L10 N09 N10 1.84e-11
R10 N09 N10 1.55e-02
C11 N10 Port2 2.25e-12
L11 N10 Port2 1.00e-10
R11 N10 Port2 2.80e+01
.ENDS GCH155R71C224KE01
*----------------------------------------------------------------------
* SPICE Model generated by Murata Manufacturing Co., Ltd.
* Copyright(C) Murata Manufacturing Co., Ltd.
* Description :1005M(0402)/X7R(-55to125[deg])/4.70e-02[uF]/16[V]
* Murata P/N :GCH155R71C473KE01
* Property : C = 4.70e-02[uF]
*----------------------------------------------------------------------
* Applicable Conditions:
*   Frequency Range = 100[kHz]-6[GHz]
*   Temperature = 25 degC
*   DC Bias Voltage = 0V
*   Small Signal Operation
*----------------------------------------------------------------------
.SUBCKT GCH155R71C473KE01 Port1 Port2
C01 Port1 N01 4.51e-08
R01 Port1 N01 1.06e+09
L02 N01 N02 1.90e-10
R03 N02 N03 2.20e-02
C04 N03 N04 3.84e-06
R04 N03 N04 2.47e+00
C05 N04 N05 3.68e-06
R05 N04 N05 4.86e-01
C06 N05 N06 4.07e-05
R06 N05 N06 3.91e-01
C07 N06 N07 3.41e-06
R07 N06 N07 8.38e-02
C08 N07 N08 3.80e-06
R08 N07 N08 1.32e-02
L09 N08 N09 1.48e-11
R09 N08 N09 1.27e-01
L10 N09 N10 7.69e-11
R10 N09 N10 9.71e-02
C11 N10 N11 7.56e-07
L11 N10 N11 5.69e-12
R11 N10 N11 1.12e-02
C12 N11 N12 6.90e-08
L12 N11 N12 2.90e-11
R12 N11 N12 3.29e-02
C13 N12 N13 7.54e-12
L13 N12 N13 4.01e-11
R13 N12 N13 6.04e+00
C14 N13 Port2 2.20e-11
L14 N13 Port2 1.20e-11
R14 N13 Port2 1.00e+05
.ENDS GCH155R71C473KE01
*----------------------------------------------------------------------
* SPICE Model generated by Murata Manufacturing Co., Ltd.
* Copyright(C) Murata Manufacturing Co., Ltd.
* Description :1005M(0402)/X7R(-55to125[deg])/1.00e-02[uF]/25[V]
* Murata P/N :GCH155R71E103KE01
* Property : C = 1.00e-02[uF]
*----------------------------------------------------------------------
* Applicable Conditions:
*   Frequency Range = 100[kHz]-6[GHz]
*   Temperature = 25 degC
*   DC Bias Voltage = 0V
*   Small Signal Operation
*----------------------------------------------------------------------
.SUBCKT GCH155R71E103KE01 Port1 Port2
C01 Port1 N01 9.30e-09
R01 Port1 N01 5.00e+09
L02 N01 N02 1.77e-10
R03 N02 N03 7.26e-02
C04 N03 N04 1.06e-06
R04 N03 N04 1.65e+01
C05 N04 N05 1.91e-06
R05 N04 N05 2.67e+00
C06 N05 N06 9.93e-07
R06 N05 N06 1.40e+00
C07 N06 N07 6.08e-07
R07 N06 N07 4.10e-01
C08 N07 N08 7.95e-07
R08 N07 N08 6.60e-02
C09 N08 N09 3.28e-07
R09 N08 N09 3.10e-02
L10 N09 N10 6.49e-11
R10 N09 N10 2.14e-01
C11 N10 N11 1.80e-08
L11 N10 N11 1.54e-11
R11 N10 N11 4.09e-02
C12 N11 Port2 2.60e-12
L12 N11 Port2 1.20e-10
R12 N11 Port2 1.77e+01
.ENDS GCH155R71E103KE01
*----------------------------------------------------------------------
* SPICE Model generated by Murata Manufacturing Co., Ltd.
* Copyright(C) Murata Manufacturing Co., Ltd.
* Description :1005M(0402)/X7R(-55to125[deg])/2.20e-02[uF]/25[V]
* Murata P/N :GCH155R71E223KE01
* Property : C = 2.20e-02[uF]
*----------------------------------------------------------------------
* Applicable Conditions:
*   Frequency Range = 100[kHz]-6[GHz]
*   Temperature = 25 degC
*   DC Bias Voltage = 0V
*   Small Signal Operation
*----------------------------------------------------------------------
.SUBCKT GCH155R71E223KE01 Port1 Port2
C01 Port1 N01 2.12e-08
R01 Port1 N01 2.27e+09
L02 N01 N02 1.80e-10
R03 N02 N03 5.15e-02
C04 N03 N04 1.64e-06
R04 N03 N04 5.54e+00
C05 N04 N05 2.10e-06
R05 N04 N05 9.55e-01
C06 N05 N06 1.36e-06
R06 N05 N06 2.65e-01
C07 N06 N07 1.25e-06
R07 N06 N07 4.13e-02
C08 N07 N08 2.13e-06
R08 N07 N08 8.77e-03
L09 N08 N09 6.50e-11
R09 N08 N09 1.67e-01
C10 N09 N10 2.72e-07
L10 N09 N10 5.61e-12
R10 N09 N10 8.34e-03