*----------------------------------------------------------------------
* SPICE Model generated by Murata Manufacturing Co., Ltd.
* Copyright(C) Murata Manufacturing Co., Ltd.
* Description :1608M(0603)/X7S(-55to125[deg])/3.30e+00[uF]/6.3[V]
* Murata P/N :GCJ188C70J335KE02
* Property : C = 3.30e+00[uF]
*----------------------------------------------------------------------
* Applicable Conditions:
*   Frequency Range = 100[Hz]-6[GHz]
*   Temperature = 25 degC
*   DC Bias Voltage = 0V
*   Small Signal Operation
*----------------------------------------------------------------------
.SUBCKT GCJ188C70J335KE02 Port1 Port2
C01 Port1 N01 2.63e-06
R01 Port1 N01 1.52e+07
L02 N01 N02 2.02e-10
R03 N02 N03 1.44e-02
C04 N03 N04 2.62e-05
R04 N03 N04 3.94e+02
C05 N04 N05 1.28e-04
R05 N04 N05 7.58e+00
C06 N05 N06 1.09e-04
R06 N05 N06 8.89e-01
C07 N06 N07 1.20e-04
R07 N06 N07 8.00e-02
C08 N07 N08 6.35e-05
R08 N07 N08 1.99e-02
L09 N08 N09 3.36e-11
R09 N08 N09 7.01e-02
L10 N09 N10 2.03e-10
R10 N09 N10 2.86e-02
C11 N10 N11 1.01e-05
L11 N10 N11 3.81e-11
R11 N10 N11 4.91e-03
C12 N11 N12 2.54e-06
L12 N11 N12 6.75e-11
R12 N11 N12 7.79e-03
C13 N12 N13 8.65e-12
L13 N12 N13 7.15e-11
R13 N12 N13 1.08e+01
C14 N13 Port2 3.85e-12
L14 N13 Port2 7.84e-11
R14 N13 Port2 2.86e+01
.ENDS GCJ188C70J335KE02
*----------------------------------------------------------------------
* SPICE Model generated by Murata Manufacturing Co., Ltd.
* Copyright(C) Murata Manufacturing Co., Ltd.
* Description :1608M(0603)/X7S(-55to125[deg])/3.30e+00[uF]/6.3[V]
* Murata P/N :GCJ188C70J335ME02
* Property : C = 3.30e+00[uF]
*----------------------------------------------------------------------
* Applicable Conditions:
*   Frequency Range = 100[Hz]-6[GHz]
*   Temperature = 25 degC
*   DC Bias Voltage = 0V
*   Small Signal Operation
*----------------------------------------------------------------------
.SUBCKT GCJ188C70J335ME02 Port1 Port2
C01 Port1 N01 2.63e-06
R01 Port1 N01 1.52e+07
L02 N01 N02 2.02e-10
R03 N02 N03 1.44e-02
C04 N03 N04 2.62e-05
R04 N03 N04 3.94e+02
C05 N04 N05 1.28e-04
R05 N04 N05 7.58e+00
C06 N05 N06 1.09e-04
R06 N05 N06 8.89e-01
C07 N06 N07 1.20e-04
R07 N06 N07 8.00e-02
C08 N07 N08 6.35e-05
R08 N07 N08 1.99e-02
L09 N08 N09 3.36e-11
R09 N08 N09 7.01e-02
L10 N09 N10 2.03e-10
R10 N09 N10 2.86e-02
C11 N10 N11 1.01e-05
L11 N10 N11 3.81e-11
R11 N10 N11 4.91e-03
C12 N11 N12 2.54e-06
L12 N11 N12 6.75e-11
R12 N11 N12 7.79e-03
C13 N12 N13 8.65e-12
L13 N12 N13 7.15e-11
R13 N12 N13 1.08e+01
C14 N13 Port2 3.85e-12
L14 N13 Port2 7.84e-11
R14 N13 Port2 2.86e+01
.ENDS GCJ188C70J335ME02
*----------------------------------------------------------------------
* SPICE Model generated by Murata Manufacturing Co., Ltd.
* Copyright(C) Murata Manufacturing Co., Ltd.
* Description :1608M(0603)/X7S(-55to125[deg])/4.70e+00[uF]/6.3[V]
* Murata P/N :GCJ188C70J475KE02
* Property : C = 4.70e+00[uF]
*----------------------------------------------------------------------
* Applicable Conditions:
*   Frequency Range = 100[Hz]-6[GHz]
*   Temperature = 25 degC
*   DC Bias Voltage = 0V
*   Small Signal Operation
*----------------------------------------------------------------------
.SUBCKT GCJ188C70J475KE02 Port1 Port2
C01 Port1 N01 3.56e-06
R01 Port1 N01 1.06e+07
L02 N01 N02 1.35e-10
R03 N02 N03 1.72e-02
C04 N03 N04 1.26e-04
R04 N03 N04 6.70e+01
C05 N04 N05 1.93e-04
R05 N04 N05 3.66e+00
C06 N05 N06 1.87e-04
R06 N05 N06 5.37e-01
C07 N06 N07 2.56e-04
R07 N06 N07 6.57e-02
C08 N07 N08 1.81e-04
R08 N07 N08 2.06e-02
C09 N08 N09 1.51e-04
R09 N08 N09 7.47e-03
L10 N09 N10 2.03e-11
R10 N09 N10 1.33e-01
L11 N10 N11 4.31e-11
R11 N10 N11 3.46e-02
L12 N11 N12 2.75e-10
R12 N11 N12 2.33e-02
C13 N12 N13 1.18e-05
L13 N12 N13 5.56e-11
R13 N12 N13 4.76e-03
C14 N13 N14 8.14e-06
L14 N13 N14 3.96e-11
R14 N13 N14 5.58e-03
C15 N14 Port2 2.19e-12
L15 N14 Port2 1.19e-10
R15 N14 Port2 4.07e+01
.ENDS GCJ188C70J475KE02
*----------------------------------------------------------------------
* SPICE Model generated by Murata Manufacturing Co., Ltd.
* Copyright(C) Murata Manufacturing Co., Ltd.
* Description :1608M(0603)/X7S(-55to125[deg])/4.70e+00[uF]/6.3[V]
* Murata P/N :GCJ188C70J475ME02
* Property : C = 4.70e+00[uF]
*----------------------------------------------------------------------
* Applicable Conditions:
*   Frequency Range = 100[Hz]-6[GHz]
*   Temperature = 25 degC
*   DC Bias Voltage = 0V
*   Small Signal Operation
*----------------------------------------------------------------------
.SUBCKT GCJ188C70J475ME02 Port1 Port2
C01 Port1 N01 3.56e-06
R01 Port1 N01 1.06e+07
L02 N01 N02 1.35e-10
R03 N02 N03 1.72e-02
C04 N03 N04 1.26e-04
R04 N03 N04 6.70e+01
C05 N04 N05 1.93e-04
R05 N04 N05 3.66e+00
C06 N05 N06 1.87e-04
R06 N05 N06 5.37e-01
C07 N06 N07 2.56e-04
R07 N06 N07 6.57e-02
C08 N07 N08 1.81e-04
R08 N07 N08 2.06e-02
C09 N08 N09 1.51e-04
R09 N08 N09 7.47e-03
L10 N09 N10 2.03e-11
R10 N09 N10 1.33e-01
L11 N10 N11 4.31e-11
R11 N10 N11 3.46e-02
L12 N11 N12 2.75e-10
R12 N11 N12 2.33e-02
C13 N12 N13 1.18e-05
L13 N12 N13 5.56e-11
R13 N12 N13 4.76e-03
C14 N13 N14 8.14e-06
L14 N13 N14 3.96e-11
R14 N13 N14 5.58e-03
C15 N14 Port2 2.19e-12
L15 N14 Port2 1.19e-10
R15 N14 Port2 4.07e+01
.ENDS GCJ188C70J475ME02
*----------------------------------------------------------------------
* SPICE Model generated by Murata Manufacturing Co., Ltd.
* Copyright(C) Murata Manufacturing Co., Ltd.
* Description :1608M(0603)/X8L(-55to150[deg])/1.00e-01[uF]/16[V]
* Murata P/N :GCJ188L81C104KA01
* Property : C = 1.00e-01[uF]
*----------------------------------------------------------------------
* Applicable Conditions:
*   Frequency Range = 100[kHz]-6[GHz]
*   Temperature = 25 degC
*   DC Bias Voltage = 0V
*   Small Signal Operation
*----------------------------------------------------------------------
.SUBCKT GCJ188L81C104KA01 Port1 Port2
C01 Port1 N01 9.59e-08
R01 Port1 N01 5.00e+09
L02 N01 N02 1.83e-10
R03 N02 N03 3.79e-02
C04 N03 N04 2.08e-05
R04 N03 N04 1.83e-01
C05 N04 N05 9.70e-06
R05 N04 N05 1.24e-01
C06 N05 N06 8.93e-06
R06 N05 N06 2.45e-02
C07 N06 N07 1.89e-06
R07 N06 N07 8.29e-03
L08 N07 N08 2.43e-10
R08 N07 N08 9.74e-02
L09 N08 N09 2.13e-11
R09 N08 N09 8.75e-02
C10 N09 N10 8.35e-07
L10 N09 N10 1.62e-11
R10 N09 N10 2.24e-02
C11 N10 N11 3.50e-07
L11 N10 N11 1.95e-11
R11 N10 N11 2.67e-02
C12 N11 Port2 3.81e-12
L12 N11 Port2 9.28e-11
R12 N11 Port2 1.25e+01
.ENDS GCJ188L81C104KA01
*----------------------------------------------------------------------
* SPICE Model generated by Murata Manufacturing Co., Ltd.
* Copyright(C) Murata Manufacturing Co., Ltd.
* Description :1608M(0603)/X8L(-55to150[deg])/1.00e-01[uF]/16[V]
* Murata P/N :GCJ188L81C104MA01
* Property : C = 1.00e-01[uF]
*----------------------------------------------------------------------
* Applicable Conditions:
*   Frequency Range = 100[kHz]-6[GHz]
*   Temperature = 25 degC
*   DC Bias Voltage = 0V
*   Small Signal Operation
*----------------------------------------------------------------------
.SUBCKT GCJ188L81C104MA01 Port1 Port2
C01 Port1 N01 9.59e-08
R01 Port1 N01 5.00e+09
L02 N01 N02 1.83e-10
R03 N02 N03 3.79e-02
C04 N03 N04 2.08e-05
R04 N03 N04 1.83e-01
C05 N04 N05 9.70e-06
R05 N04 N05 1.24e-01
C06 N05 N06 8.93e-06
R06 N05 N06 2.45e-02
C07 N06 N07 1.89e-06
R07 N06 N07 8.29e-03
L08 N07 N08 2.43e-10
R08 N07 N08 9.74e-02
L09 N08 N09 2.13e-11
R09 N08 N09 8.75e-02
C10 N09 N10 8.35e-07
L10 N09 N10 1.62e-11
R10 N09 N10 2.24e-02
C11 N10 N11 3.50e-07
L11 N10 N11 1.95e-11
R11 N10 N11 2.67e-02
C12 N11 Port2 3.81e-12
L12 N11 Port2 9.28e-11
R12 N11 Port2 1.25e+01
.ENDS GCJ188L81C104MA01
*----------------------------------------------------------------------
* SPICE Model generated by Murata Manufacturing Co., Ltd.
* Copyright(C) Murata Manufacturing Co., Ltd.
* Description :1608M(0603)/X8L(-55to150[deg])/1.20e-01[uF]/16[V]
* Murata P/N :GCJ188L81C124KA01
* Property : C = 1.20e-01[uF]
*----------------------------------------------------------------------
* Applicable Conditions:
*   Frequency Range = 100[kHz]-6[GHz]
*   Temperature = 25 degC
*   DC Bias Voltage = 0V
*   Small Signal Operation
*----------------------------------------------------------------------
.SUBCKT GCJ188L81C124KA01 Port1 Port2
C01 Port1 N01 1.17e-07
R01 Port1 N01 4.17e+09
L02 N01 N02 2.03e-10
R03 N02 N03 5.93e-02
C04 N03 N04 1.21e-05
R04 N03 N04 5.97e+02
C05 N04 N05 1.44e-05
R05 N04 N05 4.63e+01
C06 N05 N06 1.54e-05
R06 N05 N06 4.32e+00
C07 N06 N07 1.15e-05
R07 N06 N07 6.11e-01
C08 N07 N08 8.09e-06
R08 N07 N08 8.58e-02
C09 N08 N09 1.09e-05
R09 N08 N09 7.87e-03
L10 N09 N10 1.10e-10
R10 N09 N10 8.54e-02
L11 N10 N11 1.17e-11
R11 N10 N11 7.30e-02
C12 N11 N12 5.21e-07
L12 N11 N12 2.46e-11
R12 N11 N12 1.41e-02
C13 N12 N13 1.54e-07
L13 N12 N13 3.45e-11
R13 N12 N13 2.66e-02
C14 N13 N14 6.67e-12
L14 N13 N14 9.77e-11
R14 N13 N14 1.40e+01
C15 N14 Port2 4.04e-12
L15 N14 Port2 8.39e-11
R15 N14 Port2 2.20e+01
.ENDS GCJ188L81C124KA01
*----------------------------------------------------------------------
* SPICE Model generated by Murata Manufacturing Co., Ltd.
* Copyright(C) Murata Manufacturing Co., Ltd.
* Description :1608M(0603)/X8L(-55to150[deg])/1.50e-01[uF]/16[V]
* Murata P/N :GCJ188L81C154KA01
* Property : C = 1.50e-01[uF]
*----------------------------------------------------------------------
* Applicable Conditions:
*   Frequency Range = 100[kHz]-6[GHz]
*   Temperature = 25 degC
*   DC Bias Voltage = 0V
*   Small Signal Operation
*----------------------------------------------------------------------
.SUBCKT GCJ188L81C154KA01 Port1 Port2
C01 Port1 N01 1.44e-07
R01 Port1 N01 3.33e+09
L02 N01 N02 1.89e-10
R03 N02 N03 8.85e-02
C04 N03 N04 1.45e-05
R04 N03 N04 3.47e-01
C05 N04 N05 1.57e-05
R05 N04 N05 5.74e-02
C06 N05 N06 7.20e-06
R06 N05 N06 1.67e-02
L07 N06 N07 2.48e-11
R07 N06 N07 1.52e-01
L08 N07 N08 1.59e-10
R08 N07 N08 7.01e-02
C09 N08 N09 8.81e-07
L09 N08 N09 2.29e-11
R09 N08 N09 1.16e-02
C10 N09 N10 2.25e-07
L10 N09 N10 3.72e-11
R10 N09 N10 2.29e-02
C11 N10 Port2 2.70e-12
L11 N10 Port2 1.39e-10
R11 N10 Port2 2.62e+01
.ENDS GCJ188L81C154KA01
*----------------------------------------------------------------------
* SPICE Model generated by Murata Manufacturing Co., Ltd.
* Copyright(C) Murata Manufacturing Co., Ltd.
* Description :1608M(0603)/X8L(-55to150[deg])/1.50e-01[uF]/16[V]
* Murata P/N :GCJ188L81C154MA01
* Property : C = 1.50e-01[uF]
*----------------------------------------------------------------------
* Applicable Conditions:
*   Frequency Range = 100[kHz]-6[GHz]
*   Temperature = 25 degC
*   DC Bias Voltage = 0V
*   Small Signal Operation
*----------------------------------------------------------------------
.SUBCKT GCJ188L81C154MA01 Port1 Port2
C01 Port1 N01 1.44e-07
R01 Port1 N01 3.33e+09
L02 N01 N02 1.89e-10
R03 N02 N03 8.85e-02
C04 N03 N04 1.45e-05
R04 N03 N04 3.47e-01
C05 N04 N05 1.57e-05
R05 N04 N05 5.74e-02
C06 N05 N06 7.20e-06
R06 N05 N06 1.67e-02
L07 N06 N07 2.48e-11
R07 N06 N07 1.52e-01
L08 N07 N08 1.59e-10
R08 N07 N08 7.01e-02
C09 N08 N09 8.81e-07
L09 N08 N09 2.29e-11
R09 N08 N09 1.16e-02
C10 N09 N10 2.25e-07
L10 N09 N10 3.72e-11
R10 N09 N10 2.29e-02
C11 N10 Port2 2.70e-12
L11 N10 Port2 1.39e-10
R11 N10 Port2 2.62e+01
.ENDS GCJ188L81C154MA01
*----------------------------------------------------------------------
* SPICE Model generated by Murata Manufacturing Co., Ltd.
* Copyright(C) Murata Manufacturing Co., Ltd.
* Description :1608M(0603)/X8L(-55to150[deg])/2.20e-01[uF]/16[V]
* Murata P/N :GCJ188L81C224KA01
* Property : C = 2.20e-01[uF]
*----------------------------------------------------------------------
* Applicable Conditions:
*   Frequency Range = 100[kHz]-6[GHz]
*   Temperature = 25 degC
*   DC Bias Voltage = 0V
*   Small Signal Operation
*----------------------------------------------------------------------
.SUBCKT GCJ188L81C224KA01 Port1 Port2
C01 Port1 N01 2.02e-07
R01 Port1 N01 2.27e+09
L02 N01 N02 1.76e-10
R03 N02 N03 6.36e-02
C04 N03 N04 1.83e-05
R04 N03 N04 5.30e-01
C05 N04 N05 3.36e-05
R05 N04 N05 4.48e-02
C06 N05 N06 1.24e-05
R06 N05 N06 2.90e-02
L07 N06 N07 2.33e-11
R07 N06 N07 1.18e-01
L08 N07 N08 1.49e-10
R08 N07 N08 7.24e-02
C09 N08 N09 1.07e-06
L09 N08 N09 2.57e-11
R09 N08 N09 1.41e-02
C10 N09 N10 2.73e-07
L10 N09 N10 4.86e-11
R10 N09 N10 2.63e-02
C11 N10 N11 2.15e-11
L11 N10 N11 2.51e-11
R11 N10 N11 4.63e+00
C12 N11 Port2 2.70e-12
L12 N11 Port2 1.24e-10
R12 N11 Port2 2.29e+01
.ENDS GCJ188L81C224KA01
*----------------------------------------------------------------------
* SPICE Model generated by Murata Manufacturing Co., Ltd.
* Copyright(C) Murata Manufacturing Co., Ltd.
* Description :1608M(0603)/X8L(-55to150[deg])/2.20e-01[uF]/16[V]
* Murata P/N :GCJ188L81C224MA01
* Property : C = 2.20e-01[uF]
*----------------------------------------------------------------------
* Applicable Conditions:
*   Frequency Range = 100[kHz]-6[GHz]
*   Temperature = 25 degC
*   DC Bias Voltage = 0V
*   Small Signal Operation
*----------------------------------------------------------------------
.SUBCKT GCJ188L81C224MA01 Port1 Port2
C01 Port1 N01 2.02e-07
R01 Port1 N01 2.27e+09
L02 N01 N02 1.76e-10
R03 N02 N03 6.36e-02
C04 N03 N04 1.83e-05
R04 N03 N04 5.30e-01
C05 N04 N05 3.36e-05
R05 N04 N05 4.48e-02
C06 N05 N06 1.24e-05
R06 N05 N06 2.90e-02
L07 N06 N07 2.33e-11
R07 N06 N07 1.18e-01
L08 N07 N08 1.49e-10
R08 N07 N08 7.24e-02
C09 N08 N09 1.07e-06
L09 N08 N09 2.57e-11
R09 N08 N09 1.41e-02
C10 N09 N10 2.73e-07
L10 N09 N10 4.86e-11
R10 N09 N10 2.63e-02
C11 N10 N11 2.15e-11
L11 N10 N11 2.51e-11
R11 N10 N11 4.63e+00
C12 N11 Port2 2.70e-12
L12 N11 Port2 1.24e-10
R12 N11 Port2 2.29e+01
.ENDS GCJ188L81C224MA01
*----------------------------------------------------------------------
* SPICE Model generated by Murata Manufacturing Co., Ltd.
* Copyright(C) Murata Manufacturing Co., Ltd.
* Description :1608M(0603)/X8L(-55to150[deg])/3.90e-02[uF]/16[V]
* Murata P/N :GCJ188L81C393KA01
* Property : C = 3.90e-02[uF]
*----------------------------------------------------------------------
* Applicable Conditions:
*   Frequency Range = 100[kHz]-6[GHz]
*   Temperature = 25 degC
*   DC Bias Voltage = 0V
*   Small Signal Operation
*----------------------------------------------------------------------
.SUBCKT GCJ188L81C393KA01 Port1 Port2
C01 Port1 N01 3.97e-08
R01 Port1 N01 1.00e+10
L02 N01 N02 1.77e-10
R03 N02 N03 2.73e-02
C04 N03 N04 4.76e-06
R04 N03 N04 1.51e+03
C05 N04 N05 5.69e-06
R05 N04 N05 1.18e+02
C06 N05 N06 5.71e-06
R06 N05 N06 1.18e+01
C07 N06 N07 4.62e-06
R07 N06 N07 1.45e+00
C08 N07 N08 3.60e-06
R08 N07 N08 1.87e-01
C09 N08 N09 2.55e-06
R09 N08 N09 2.96e-02
L10 N09 N10 1.25e-10
R10 N09 N10 1.20e-01
C11 N10 N11 2.15e-07
L11 N10 N11 2.11e-11
R11 N10 N11 2.80e-02
C12 N11 N12 6.67e-08
L12 N11 N12 2.91e-11
R12 N11 N12 4.14e-02
C13 N12 N13 3.99e-12
L13 N12 N13 1.15e-10
R13 N12 N13 1.44e+01
C14 N13 Port2 4.03e-12
L14 N13 Port2 6.46e-11
R14 N13 Port2 2.01e+01
.ENDS GCJ188L81C393KA01
*----------------------------------------------------------------------
* SPICE Model generated by Murata Manufacturing Co., Ltd.
* Copyright(C) Murata Manufacturing Co., Ltd.
* Description :1608M(0603)/X8L(-55to150[deg])/4.70e-02[uF]/16[V]
* Murata P/N :GCJ188L81C473KA01
* Property : C = 4.70e-02[uF]
*----------------------------------------------------------------------
* Applicable Conditions:
*   Frequency Range = 100[kHz]-6[GHz]
*   Temperature = 25 degC
*   DC Bias Voltage = 0V
*   Small Signal Operation
*----------------------------------------------------------------------
.SUBCKT GCJ188L81C473KA01 Port1 Port2
C01 Port1 N01 4.64e-08
R01 Port1 N01 1.00e+10
L02 N01 N02 2.32e-10
R03 N02 N03 1.13e-01
C04 N03 N04 2.90e-06
R04 N03 N04 2.05e+00
C05 N04 N05 5.66e-06
R05 N04 N05 1.22e-01
C06 N05 N06 4.11e-06
R06 N05 N06 4.69e-02
L07 N06 N07 1.50e-10
R07 N06 N07 1.43e-01
C08 N07 N08 3.95e-07
L08 N07 N08 1.42e-11
R08 N07 N08 2.83e-02
C09 N08 N09 8.56e-08
L09 N08 N09 3.06e-11
R09 N08 N09 4.42e-02
C10 N09 Port2 4.43e-12
L10 N09 Port2 8.24e-11
R10 N09 Port2 7.26e+00
.ENDS GCJ188L81C473KA01
*----------------------------------------------------------------------
* SPICE Model generated by Murata Manufacturing Co., Ltd.
* Copyright(C) Murata Manufacturing Co., Ltd.
* Description :1608M(0603)/X8L(-55to150[deg])/4.70e-02[uF]/16[V]
* Murata P/N :GCJ188L81C473MA01
* Property : C = 4.70e-02[uF]
*----------------------------------------------------------------------
* Applicable Conditions:
*   Frequency Range = 100[kHz]-6[GHz]
*   Temperature = 25 degC
*   DC Bias Voltage = 0V
*   Small Signal Operation
*----------------------------------------------------------------------
.SUBCKT GCJ188L81C473MA01 Port1 Port2
C01 Port1 N01 4.64e-08
R01 Port1 N01 1.00e+10
L02 N01 N02 2.32e-10
R03 N02 N03 1.13e-01
C04 N03 N04 2.90e-06
R04 N03 N04 2.05e+00
C05 N04 N05 5.66e-06
R05 N04 N05 1.22e-01
C06 N05 N06 4.11e-06
R06 N05 N06 4.69e-02
L07 N06 N07 1.50e-10
R07 N06 N07 1.43e-01
C08 N07 N08 3.95e-07
L08 N07 N08 1.42e-11
R08 N07 N08 2.83e-02
C09 N08 N09 8.56e-08
L09 N08 N09 3.06e-11
R09 N08 N09 4.42e-02
C10 N09 Port2 4.43e-12
L10 N09 Port2 8.24e-11
R10 N09 Port2 7.26e+00
.ENDS GCJ188L81C473MA01
*----------------------------------------------------------------------
* SPICE Model generated by Murata Manufacturing Co., Ltd.
* Copyright(C) Murata Manufacturing Co., Ltd.
* Description :1608M(0603)/X8L(-55to150[deg])/6.80e-02[uF]/16[V]
* Murata P/N :GCJ188L81C683KA01
* Property : C = 6.80e-02[uF]
*----------------------------------------------------------------------
* Applicable Conditions:
*   Frequency Range = 100[kHz]-6[GHz]
*   Temperature = 25 degC
*   DC Bias Voltage = 0V
*   Small Signal Operation
*----------------------------------------------------------------------
.SUBCKT GCJ188L81C683KA01 Port1 Port2
C01 Port1 N01 6.67e-08
R01 Port1 N01 7.35e+09
L02 N01 N02 8.13e-11
R03 N02 N03 2.88e-02
C04 N03 N04 3.58e-06
R04 N03 N04 1.77e+00
C05 N04 N05 6.41e-06
R05 N04 N05 1.17e-01
C06 N05 N06 3.57e-06
R06 N05 N06 2.28e-02
L07 N06 N07 1.87e-11
R07 N06 N07 9.79e-02
L08 N07 N08 1.54e-10
R08 N07 N08 9.23e-02
C09 N08 N09 5.03e-07
L09 N08 N09 1.82e-11
R09 N08 N09 1.98e-02
C10 N09 N10 1.39e-07
L10 N09 N10 2.91e-11
R10 N09 N10 3.70e-02
C11 N10 N11 1.25e-11
L11 N10 N11 4.61e-11
R11 N10 N11 8.64e+00
C12 N11 Port2 9.87e-13
L12 N11 Port2 2.34e-10
R12 N11 Port2 7.27e+01
.ENDS GCJ188L81C683KA01
*----------------------------------------------------------------------
* SPICE Model generated by Murata Manufacturing Co., Ltd.
* Copyright(C) Murata Manufacturing Co., Ltd.
* Description :1608M(0603)/X8L(-55to150[deg])/6.80e-02[uF]/16[V]
* Murata P/N :GCJ188L81C683MA01
* Property : C = 6.80e-02[uF]
*----------------------------------------------------------------------
* Applicable Conditions:
*   Frequency Range = 100[kHz]-6[GHz]
*   Temperature = 25 degC
*   DC Bias Voltage = 0V
*   Small Signal Operation
*----------------------------------------------------------------------
.SUBCKT GCJ188L81C683MA01 Port1 Port2
C01 Port1 N01 6.67e-08
R01 Port1 N01 7.35e+09
L02 N01 N02 8.13e-11
R03 N02 N03 2.88e-02
C04 N03 N04 3.58e-06
R04 N03 N04 1.77e+00
C05 N04 N05 6.41e-06
R05 N04 N05 1.17e-01
C06 N05 N06 3.57e-06
R06 N05 N06 2.28e-02
L07 N06 N07 1.87e-11
R07 N06 N07 9.79e-02
L08 N07 N08 1.54e-10
R08 N07 N08 9.23e-02
C09 N08 N09 5.03e-07
L09 N08 N09 1.82e-11
R09 N08 N09 1.98e-02
C10 N09 N10 1.39e-07
L10 N09 N10 2.91e-11
R10 N09 N10 3.70e-02
C11 N10 N11 1.25e-11
L11 N10 N11 4.61e-11
R11 N10 N11 8.64e+00
C12 N11 Port2 9.87e-13
L12 N11 Port2 2.34e-10
R12 N11 Port2 7.27e+01
.ENDS GCJ188L81C683MA01
*----------------------------------------------------------------------
* SPICE Model generated by Murata Manufacturing Co., Ltd.
* Copyright(C) Murata Manufacturing Co., Ltd.
* Description :1608M(0603)/X8L(-55to150[deg])/1.50e-01[uF]/25[V]
* Murata P/N :GCJ188L81E154KA01
* Property : C = 1.50e-01[uF]
*----------------------------------------------------------------------
* Applicable Conditions:
*   Frequency Range = 100[kHz]-6[GHz]
*   Temperature = 25 degC
*   DC Bias Voltage = 0V
*   Small Signal Operation
*----------------------------------------------------------------------
.SUBCKT GCJ188L81E154KA01 Port1 Port2
C01 Port1 N01 1.44e-07
R01 Port1 N01 3.33e+09
L02 N01 N02 1.89e-10
R03 N02 N03 8.85e-02
C04 N03 N04 1.45e-05
R04 N03 N04 3.47e-01
C05 N04 N05 1.57e-05
R05 N04 N05 5.74e-02
C06 N05 N06 7.20e-06
R06 N05 N06 1.67e-02
L07 N06 N07 2.48e-11
R07 N06 N07 1.52e-01
L08 N07 N08 1.59e-10
R08 N07 N08 7.01e-02
C09 N08 N09 8.81e-07
L09 N08 N09 2.29e-11
R09 N08 N09 1.16e-02
C10 N09 N10 2.25e-07
L10 N09 N10 3.72e-11
R10 N09 N10 2.29e-02
C11 N10 Port2 2.70e-12
L11 N10 Port2 1.39e-10
R11 N10 Port2 2.62e+01
.ENDS GCJ188L81E154KA01
*----------------------------------------------------------------------
* SPICE Model generated by Murata Manufacturing Co., Ltd.
* Copyright(C) Murata Manufacturing Co., Ltd.
* Description :1608M(0603)/X8L(-55to150[deg])/1.50e-01[uF]/25[V]
* Murata P/N :GCJ188L81E154MA01
* Property : C = 1.50e-01[uF]
*----------------------------------------------------------------------
* Applicable Conditions:
*   Frequency Range = 100[kHz]-6[GHz]
*   Temperature = 25 degC
*   DC Bias Voltage = 0V
*   Small Signal Operation
*----------------------------------------------------------------------
.SUBCKT GCJ188L81E154MA01 Port1 Port2
C01 Port1 N01 1.44e-07
R01 Port1 N01 3.33e+09
L02 N01 N02 1.89e-10
R03 N02 N03 8.85e-02
C04 N03 N04 1.45e-05
R04 N03 N04 3.47e-01
C05 N04 N05 1.57e-05
R05 N04 N05 5.74e-02
C06 N05 N06 7.20e-06
R06 N05 N06 1.67e-02
L07 N06 N07 2.48e-11
R07 N06 N07 1.52e-01
L08 N07 N08 1.59e-10
R08 N07 N08 7.01e-02
C09 N08 N09 8.81e-07
L09 N08 N09 2.29e-11
R09 N08 N09 1.16e-02
C10 N09 N10 2.25e-07
L10 N09 N10 3.72e-11
R10 N09 N10 2.29e-02
C11 N10 Port2 2.70e-12
L11 N10 Port2 1.39e-10
R11 N10 Port2 2.62e+01
.ENDS GCJ188L81E154MA01
*----------------------------------------------------------------------
* SPICE Model generated by Murata Manufacturing Co., Ltd.
* Copyright(C) Murata Manufacturing Co., Ltd.
* Description :1608M(0603)/X8L(-55to150[deg])/2.20e-01[uF]/25[V]
* Murata P/N :GCJ188L81E224KA01
* Property : C = 2.20e-01[uF]
*----------------------------------------------------------------------
* Applicable Conditions:
*   Frequency Range = 100[kHz]-6[GHz]
*   Temperature = 25 degC
*   DC Bias Voltage = 0V
*   Small Signal Operation
*----------------------------------------------------------------------
.SUBCKT GCJ188L81E224KA01 Port1 Port2
C01 Port1 N01 2.02e-07
R01 Port1 N01 2.27e+09
L02 N01 N02 1.76e-10
R03 N02 N03 6.36e-02
C04 N03 N04 1.83e-05
R04 N03 N04 5.30e-01
C05 N04 N05 3.36e-05
R05 N04 N05 4.48e-02
C06 N05 N06 1.24e-05
R06 N05 N06 2.90e-02
L07 N06 N07 2.33e-11
R07 N06 N07 1.18e-01
L08 N07 N08 1.49e-10
R08 N07 N08 7.24e-02
C09 N08 N09 1.07e-06
L09 N08 N09 2.57e-11
R09 N08 N09 1.41e-02
C10 N09 N10 2.73e-07
L10 N09 N10 4.86e-11
R10 N09 N10 2.63e-02
C11 N10 N11 2.15e-11
L11 N10 N11 2.51e-11
R11 N10 N11 4.63e+00
C12 N11 Port2 2.70e-12
L12 N11 Port2 1.24e-10
R12 N11 Port2 2.29e+01
.ENDS GCJ188L81E224KA01
*----------------------------------------------------------------------
* SPICE Model generated by Murata Manufacturing Co., Ltd.
* Copyright(C) Murata Manufacturing Co., Ltd.
* Description :1608M(0603)/X8L(-55to150[deg])/2.20e-01[uF]/25[V]
* Murata P/N :GCJ188L81E224MA01
* Property : C = 2.20e-01[uF]
*----------------------------------------------------------------------
* Applicable Conditions:
*   Frequency Range = 100[kHz]-6[GHz]
*   Temperature = 25 degC
*   DC Bias Voltage = 0V
*   Small Signal Operation
*----------------------------------------------------------------------
.SUBCKT GCJ188L81E224MA01 Port1 Port2
C01 Port1 N01 2.02e-07
R01 Port1 N01 2.27e+09
L02 N01 N02 1.76e-10
R03 N02 N03 6.36e-02
C04 N03 N04 1.83e-05
R04 N03 N04 5.30e-01
C05 N04 N05 3.36e-05
R05 N04 N05 4.48e-02
C06 N05 N06 1.24e-05
R06 N05 N06 2.90e-02
L07 N06 N07 2.33e-11
R07 N06 N07 1.18e-01
L08 N07 N08 1.49e-10
R08 N07 N08 7.24e-02
C09 N08 N09 1.07e-06
L09 N08 N09 2.57e-11
R09 N08 N09 1.41e-02
C10 N09 N10 2.73e-07
L10 N09 N10 4.86e-11
R10 N09 N10 2.63e-02
C11 N10 N11 2.15e-11
L11 N10 N11 2.51e-11
R11 N10 N11 4.63e+00
C12 N11 Port2 2.70e-12
L12 N11 Port2 1.24e-10
R12 N11 Port2 2.29e+01
.ENDS GCJ188L81E224MA01
*----------------------------------------------------------------------
* SPICE Model generated by Murata Manufacturing Co., Ltd.
* Copyright(C) Murata Manufacturing Co., Ltd.
* Description :1608M(0603)/X8L(-55to150[deg])/3.90e-02[uF]/25[V]
* Murata P/N :GCJ188L81E393KA01
* Property : C = 3.90e-02[uF]
*----------------------------------------------------------------------
* Applicable Conditions:
*   Frequency Range = 100[kHz]-6[GHz]
*   Temperature = 25 degC
*   DC Bias Voltage = 0V
*   Small Signal Operation
*----------------------------------------------------------------------
.SUBCKT GCJ188L81E393KA01 Port1 Port2
C01 Port1 N01 3.97e-08
R01 Port1 N01 1.00e+10
L02 N01 N02 1.77e-10
R03 N02 N03 2.73e-02
C04 N03 N04 4.76e-06
R04 N03 N04 1.51e+03
C05 N04 N05 5.69e-06
R05 N04 N05 1.18e+02
C06 N05 N06 5.71e-06
R06 N05 N06 1.18e+01
C07 N06 N07 4.62e-06
R07 N06 N07 1.45e+00
C08 N07 N08 3.60e-06
R08 N07 N08 1.87e-01
C09 N08 N09 2.55e-06
R09 N08 N09 2.96e-02
L10 N09 N10 1.25e-10
R10 N09 N10 1.20e-01
C11 N10 N11 2.15e-07
L11 N10 N11 2.11e-11
R11 N10 N11 2.80e-02
C12 N11 N12 6.67e-08
L12 N11 N12 2.91e-11
R12 N11 N12 4.14e-02
C13 N12 N13 3.99e-12
L13 N12 N13 1.15e-10
R13 N12 N13 1.44e+01
C14 N13 Port2 4.03e-12
L14 N13 Port2 6.46e-11
R14 N13 Port2 2.01e+01
.ENDS GCJ188L81E393KA01
*----------------------------------------------------------------------
* SPICE Model generated by Murata Manufacturing Co., Ltd.
* Copyright(C) Murata Manufacturing Co., Ltd.
* Description :1608M(0603)/X8L(-55to150[deg])/6.80e-02[uF]/25[V]
* Murata P/N :GCJ188L81E683KA01
* Property : C = 6.80e-02[uF]
*----------------------------------------------------------------------
* Applicable Conditions:
*   Frequency Range = 100[kHz]-6[GHz]
*   Temperature = 25 degC
*   DC Bias Voltage = 0V
*   Small Signal Operation
*----------------------------------------------------------------------
.SUBCKT GCJ188L81E683KA01 Port1 Port2
C01 Port1 N01 6.67e-08
R01 Port1 N01 7.35e+09
L02 N01 N02 8.13e-11
R03 N02 N03 2.88e-02
C04 N03 N04 3.58e-06
R04 N03 N04 1.77e+00
C05 N04 N05 6.41e-06
R05 N04 N05 1.17e-01
C06 N05 N06 3.57e-06
R06 N05 N06 2.28e-02
L07 N06 N07 1.87e-11
R07 N06 N07 9.79e-02
L08 N07 N08 1.54e-10
R08 N07 N08 9.23e-02
C09 N08 N09 5.03e-07
L09 N08 N09 1.82e-11
R09 N08 N09 1.98e-02
C10 N09 N10 1.39e-07
L10 N09 N10 2.91e-11
R10 N09 N10 3.70e-02
C11 N10 N11 1.25e-11
L11 N10 N11 4.61e-11
R11 N10 N11 8.64e+00
C12 N11 Port2 9.87e-13
L12 N11 Port2 2.34e-10
R12 N11 Port2 7.27e+01
.ENDS GCJ188L81E683KA01
*----------------------------------------------------------------------
* SPICE Model generated by Murata Manufacturing Co., Ltd.
* Copyright(C) Murata Manufacturing Co., Ltd.
* Description :1608M(0603)/X8L(-55to150[deg])/6.80e-02[uF]/25[V]
* Murata P/N :GCJ188L81E683MA01
* Property : C = 6.80e-02[uF]
*----------------------------------------------------------------------
* Applicable Conditions:
*   Frequency Range = 100[kHz]-6[GHz]
*   Temperature = 25 degC
*   DC Bias Voltage = 0V
*   Small Signal Operation
*----------------------------------------------------------------------
.SUBCKT GCJ188L81E683MA01 Port1 Port2
C01 Port1 N01 6.67e-08
R01 Port1 N01 7.35e+09
L02 N01 N02 8.13e-11
R03 N02 N03 2.88e-02
C04 N03 N04 3.58e-06
R04 N03 N04 1.77e+00
C05 N04 N05 6.41e-06
R05 N04 N05 1.17e-01
C06 N05 N06 3.57e-06
R06 N05 N06 2.28e-02
L07 N06 N07 1.87e-11
R07 N06 N07 9.79e-02
L08 N07 N08 1.54e-10
R08 N07 N08 9.23e-02
C09 N08 N09 5.03e-07
L09 N08 N09 1.82e-11
R09 N08 N09 1.98e-02
C10 N09 N10 1.39e-07
L10 N09 N10 2.91e-11
R10 N09 N10 3.70e-02
C11 N10 N11 1.25e-11
L11 N10 N11 4.61e-11
R11 N10 N11 8.64e+00
C12 N11 Port2 9.87e-13
L12 N11 Port2 2.34e-10
R12 N11 Port2 7.27e+01
.ENDS GCJ188L81E683MA01
*----------------------------------------------------------------------
* SPICE Model generated by Murata Manufacturing Co., Ltd.
* Copyright(C) Murata Manufacturing Co., Ltd.
* Description :1608M(0603)/X8L(-55to150[deg])/1.00e-03[uF]/50[V]
* Murata P/N :GCJ188L81H102KA01
* Property : C = 1.00e-03[uF]
*----------------------------------------------------------------------
* Applicable Conditions:
*   Frequency Range = 100[kHz]-6[GHz]
*   Temperature = 25 degC
*   DC Bias Voltage = 0V
*   Small Signal Operation
*----------------------------------------------------------------------
.SUBCKT GCJ188L81H102KA01 Port1 Port2
C01 Port1 N01 1.08e-09
R01 Port1 N01 1.00e+10
L02 N01 N02 9.46e-11
R03 N02 N03 3.66e-01
C04 N03 N04 2.71e-08
R04 N03 N04 2.85e+02
C05 N04 N05 1.65e-08
R05 N04 N05 1.83e+02
C06 N05 N06 1.05e-07
R06 N05 N06 1.74e+00
C07 N06 N07 5.95e-08
R07 N06 N07 6.63e-01
C08 N07 N08 1.50e-08
R08 N07 N08 2.46e-01
C09 N08 N09 1.31e-11
L09 N08 N09 2.63e-10
R09 N08 N09 5.07e+00
C10 N09 Port2 1.24e-12
L10 N09 Port2 2.34e-10
R10 N09 Port2 1.57e+01
.ENDS GCJ188L81H102KA01
*----------------------------------------------------------------------
* SPICE Model generated by Murata Manufacturing Co., Ltd.
* Copyright(C) Murata Manufacturing Co., Ltd.
* Description :1608M(0603)/X8L(-55to150[deg])/1.00e-03[uF]/50[V]
* Murata P/N :GCJ188L81H102MA01
* Property : C = 1.00e-03[uF]
*----------------------------------------------------------------------
* Applicable Conditions:
*   Frequency Range = 100[kHz]-6[GHz]
*   Temperature = 25 degC
*   DC Bias Voltage = 0V
*   Small Signal Operation
*----------------------------------------------------------------------
.SUBCKT GCJ188L81H102MA01 Port1 Port2
C01 Port1 N01 1.08e-09
R01 Port1 N01 1.00e+10
L02 N01 N02 9.46e-11
R03 N02 N03 3.66e-01
C04 N03 N04 2.71e-08
R04 N03 N04 2.85e+02
C05 N04 N05 1.65e-08
R05 N04 N05 1.83e+02
C06 N05 N06 1.05e-07
R06 N05 N06 1.74e+00
C07 N06 N07 5.95e-08
R07 N06 N07 6.63e-01
C08 N07 N08 1.50e-08
R08 N07 N08 2.46e-01
C09 N08 N09 1.31e-11
L09 N08 N09 2.63e-10
R09 N08 N09 5.07e+00
C10 N09 Port2 1.24e-12