*----------------------------------------------------------------------
* SPICE Model generated by Murata Manufacturing Co., Ltd.
* Copyright(C) Murata Manufacturing Co., Ltd.
* Description :0603M(0201)/CG(-55to125[deg])/1.00e-05[uF]/25[V]
* Murata P/N :GCM0331C1E100FA01
* Property : C = 1.00e-05[uF]
*----------------------------------------------------------------------
* Applicable Conditions:
*   Frequency Range = 100[MHz]-9[GHz]
*   Temperature = 25 degC
*   DC Bias Voltage = 0V
*   Small Signal Operation
*----------------------------------------------------------------------
.SUBCKT GCM0331C1E100FA01 Port1 Port2
C01 Port1 N01 1.00e-11
R01 Port1 N01 1.00e+10
L02 N01 N02 2.02e-10
R03 N02 N03 1.97e-01
L04 N03 N04 9.41e-12
R04 N03 N04 1.18e-01
C05 N04 N05 2.46e-11
L05 N04 N05 1.35e-11
R05 N04 N05 7.83e-01
C06 N05 Port2 2.08e-12
L06 N05 Port2 5.07e-11
R06 N05 Port2 1.00e+05
.ENDS GCM0331C1E100FA01
*----------------------------------------------------------------------
* SPICE Model generated by Murata Manufacturing Co., Ltd.
* Copyright(C) Murata Manufacturing Co., Ltd.
* Description :0603M(0201)/CG(-55to125[deg])/1.00e-05[uF]/25[V]
* Murata P/N :GCM0331C1E100JA01
* Property : C = 1.00e-05[uF]
*----------------------------------------------------------------------
* Applicable Conditions:
*   Frequency Range = 100[MHz]-9[GHz]
*   Temperature = 25 degC
*   DC Bias Voltage = 0V
*   Small Signal Operation
*----------------------------------------------------------------------
.SUBCKT GCM0331C1E100JA01 Port1 Port2
C01 Port1 N01 1.00e-11
R01 Port1 N01 1.00e+10
L02 N01 N02 2.02e-10
R03 N02 N03 1.97e-01
L04 N03 N04 9.41e-12
R04 N03 N04 1.18e-01
C05 N04 N05 2.46e-11
L05 N04 N05 1.35e-11
R05 N04 N05 7.83e-01
C06 N05 Port2 2.08e-12
L06 N05 Port2 5.07e-11
R06 N05 Port2 1.00e+05
.ENDS GCM0331C1E100JA01
*----------------------------------------------------------------------
* SPICE Model generated by Murata Manufacturing Co., Ltd.
* Copyright(C) Murata Manufacturing Co., Ltd.
* Description :0603M(0201)/CG(-55to125[deg])/1.00e-04[uF]/25[V]
* Murata P/N :GCM0331C1E101GA01
* Property : C = 1.00e-04[uF]
*----------------------------------------------------------------------
* Applicable Conditions:
*   Frequency Range = 100[MHz]-9[GHz]
*   Temperature = 25 degC
*   DC Bias Voltage = 0V
*   Small Signal Operation
*----------------------------------------------------------------------
.SUBCKT GCM0331C1E101GA01 Port1 Port2
C01 Port1 N01 1.00e-10
R01 Port1 N01 1.00e+10
L02 N01 N02 1.82e-10
R03 N02 N03 1.11e-01
L04 N03 N04 1.42e-11
R04 N03 N04 8.01e-02
C05 N04 N05 8.18e-10
L05 N04 N05 5.66e-12
R05 N04 N05 2.81e-01
C06 N05 N06 1.93e-10
L06 N05 N06 1.09e-11
R06 N05 N06 8.44e-01
C07 N06 N07 1.29e-11
L07 N06 N07 3.09e-11
R07 N06 N07 2.89e+00
C08 N07 Port2 7.88e-12
L08 N07 Port2 3.35e-11
R08 N07 Port2 1.00e+05
.ENDS GCM0331C1E101GA01
*----------------------------------------------------------------------
* SPICE Model generated by Murata Manufacturing Co., Ltd.
* Copyright(C) Murata Manufacturing Co., Ltd.
* Description :0603M(0201)/CG(-55to125[deg])/1.00e-04[uF]/25[V]
* Murata P/N :GCM0331C1E101JA01
* Property : C = 1.00e-04[uF]
*----------------------------------------------------------------------
* Applicable Conditions:
*   Frequency Range = 100[MHz]-9[GHz]
*   Temperature = 25 degC
*   DC Bias Voltage = 0V
*   Small Signal Operation
*----------------------------------------------------------------------
.SUBCKT GCM0331C1E101JA01 Port1 Port2
C01 Port1 N01 1.00e-10
R01 Port1 N01 1.00e+10
L02 N01 N02 1.82e-10
R03 N02 N03 1.11e-01
L04 N03 N04 1.42e-11
R04 N03 N04 8.01e-02
C05 N04 N05 8.18e-10
L05 N04 N05 5.66e-12
R05 N04 N05 2.81e-01
C06 N05 N06 1.93e-10
L06 N05 N06 1.09e-11
R06 N05 N06 8.44e-01
C07 N06 N07 1.29e-11
L07 N06 N07 3.09e-11
R07 N06 N07 2.89e+00
C08 N07 Port2 7.88e-12
L08 N07 Port2 3.35e-11
R08 N07 Port2 1.00e+05
.ENDS GCM0331C1E101JA01
*----------------------------------------------------------------------
* SPICE Model generated by Murata Manufacturing Co., Ltd.
* Copyright(C) Murata Manufacturing Co., Ltd.
* Description :0603M(0201)/CG(-55to125[deg])/1.10e-05[uF]/25[V]
* Murata P/N :GCM0331C1E110JA01
* Property : C = 1.10e-05[uF]
*----------------------------------------------------------------------
* Applicable Conditions:
*   Frequency Range = 100[MHz]-9[GHz]
*   Temperature = 25 degC
*   DC Bias Voltage = 0V
*   Small Signal Operation
*----------------------------------------------------------------------
.SUBCKT GCM0331C1E110JA01 Port1 Port2
C01 Port1 N01 1.10e-11
R01 Port1 N01 1.00e+10
L02 N01 N02 8.03e-11
R03 N02 N03 1.93e-01
L04 N03 N04 1.35e-11
R04 N03 N04 3.22e-01
C05 N04 N05 1.21e-11
L05 N04 N05 2.49e-11
R05 N04 N05 2.05e+00
C06 N05 Port2 1.58e-12
L06 N05 Port2 1.43e-10
R06 N05 Port2 1.00e+05
.ENDS GCM0331C1E110JA01
*----------------------------------------------------------------------
* SPICE Model generated by Murata Manufacturing Co., Ltd.
* Copyright(C) Murata Manufacturing Co., Ltd.
* Description :0603M(0201)/CG(-55to125[deg])/1.20e-05[uF]/25[V]
* Murata P/N :GCM0331C1E120GA01
* Property : C = 1.20e-05[uF]
*----------------------------------------------------------------------
* Applicable Conditions:
*   Frequency Range = 100[MHz]-9[GHz]
*   Temperature = 25 degC
*   DC Bias Voltage = 0V
*   Small Signal Operation
*----------------------------------------------------------------------
.SUBCKT GCM0331C1E120GA01 Port1 Port2
C01 Port1 N01 1.20e-11
R01 Port1 N01 1.00e+10
L02 N01 N02 1.97e-10
R03 N02 N03 1.88e-01
L04 N03 N04 2.04e-11
R04 N03 N04 5.14e-01
C05 N04 N05 3.25e-11
L05 N04 N05 9.75e-12
R05 N04 N05 1.15e+00
C06 N05 Port2 5.48e-12
L06 N05 Port2 3.75e-11
R06 N05 Port2 1.00e+05
.ENDS GCM0331C1E120GA01
*----------------------------------------------------------------------
* SPICE Model generated by Murata Manufacturing Co., Ltd.
* Copyright(C) Murata Manufacturing Co., Ltd.
* Description :0603M(0201)/CG(-55to125[deg])/1.20e-05[uF]/25[V]
* Murata P/N :GCM0331C1E120JA01
* Property : C = 1.20e-05[uF]
*----------------------------------------------------------------------
* Applicable Conditions:
*   Frequency Range = 100[MHz]-9[GHz]
*   Temperature = 25 degC
*   DC Bias Voltage = 0V
*   Small Signal Operation
*----------------------------------------------------------------------
.SUBCKT GCM0331C1E120JA01 Port1 Port2
C01 Port1 N01 1.20e-11
R01 Port1 N01 1.00e+10
L02 N01 N02 1.97e-10
R03 N02 N03 1.88e-01
L04 N03 N04 2.04e-11
R04 N03 N04 5.14e-01
C05 N04 N05 3.25e-11
L05 N04 N05 9.75e-12
R05 N04 N05 1.15e+00
C06 N05 Port2 5.48e-12
L06 N05 Port2 3.75e-11
R06 N05 Port2 1.00e+05
.ENDS GCM0331C1E120JA01
*----------------------------------------------------------------------
* SPICE Model generated by Murata Manufacturing Co., Ltd.
* Copyright(C) Murata Manufacturing Co., Ltd.
* Description :0603M(0201)/CG(-55to125[deg])/1.30e-05[uF]/25[V]
* Murata P/N :GCM0331C1E130JA01
* Property : C = 1.30e-05[uF]
*----------------------------------------------------------------------
* Applicable Conditions:
*   Frequency Range = 100[MHz]-9[GHz]
*   Temperature = 25 degC
*   DC Bias Voltage = 0V
*   Small Signal Operation
*----------------------------------------------------------------------
.SUBCKT GCM0331C1E130JA01 Port1 Port2
C01 Port1 N01 1.30e-11
R01 Port1 N01 1.00e+10
L02 N01 N02 1.02e-10
R03 N02 N03 1.87e-01
L04 N03 N04 1.69e-11
R04 N03 N04 2.70e-01
C05 N04 N05 5.19e-11
L05 N04 N05 8.17e-12
R05 N04 N05 7.58e-01
C06 N05 Port2 1.52e-12
L06 N05 Port2 1.27e-10
R06 N05 Port2 1.00e+05
.ENDS GCM0331C1E130JA01
*----------------------------------------------------------------------
* SPICE Model generated by Murata Manufacturing Co., Ltd.
* Copyright(C) Murata Manufacturing Co., Ltd.
* Description :0603M(0201)/CG(-55to125[deg])/1.50e-05[uF]/25[V]
* Murata P/N :GCM0331C1E150GA01
* Property : C = 1.50e-05[uF]
*----------------------------------------------------------------------
* Applicable Conditions:
*   Frequency Range = 100[MHz]-9[GHz]
*   Temperature = 25 degC
*   DC Bias Voltage = 0V
*   Small Signal Operation
*----------------------------------------------------------------------
.SUBCKT GCM0331C1E150GA01 Port1 Port2
C01 Port1 N01 1.50e-11
R01 Port1 N01 1.00e+10
L02 N01 N02 1.66e-10
R03 N02 N03 1.78e-01
L04 N03 N04 1.48e-11
R04 N03 N04 2.88e-01
C05 N04 N05 1.08e-11
L05 N04 N05 2.93e-11
R05 N04 N05 4.87e+00
C06 N05 Port2 4.90e-12
L06 N05 Port2 5.39e-11
R06 N05 Port2 1.00e+05
.ENDS GCM0331C1E150GA01
*----------------------------------------------------------------------
* SPICE Model generated by Murata Manufacturing Co., Ltd.
* Copyright(C) Murata Manufacturing Co., Ltd.
* Description :0603M(0201)/CG(-55to125[deg])/1.50e-05[uF]/25[V]
* Murata P/N :GCM0331C1E150JA01
* Property : C = 1.50e-05[uF]
*----------------------------------------------------------------------
* Applicable Conditions:
*   Frequency Range = 100[MHz]-9[GHz]
*   Temperature = 25 degC
*   DC Bias Voltage = 0V
*   Small Signal Operation
*----------------------------------------------------------------------
.SUBCKT GCM0331C1E150JA01 Port1 Port2
C01 Port1 N01 1.50e-11
R01 Port1 N01 1.00e+10
L02 N01 N02 1.66e-10
R03 N02 N03 1.78e-01
L04 N03 N04 1.48e-11
R04 N03 N04 2.88e-01
C05 N04 N05 1.08e-11
L05 N04 N05 2.93e-11
R05 N04 N05 4.87e+00
C06 N05 Port2 4.90e-12
L06 N05 Port2 5.39e-11
R06 N05 Port2 1.00e+05
.ENDS GCM0331C1E150JA01
*----------------------------------------------------------------------
* SPICE Model generated by Murata Manufacturing Co., Ltd.
* Copyright(C) Murata Manufacturing Co., Ltd.
* Description :0603M(0201)/CG(-55to125[deg])/1.60e-05[uF]/25[V]
* Murata P/N :GCM0331C1E160JA01
* Property : C = 1.60e-05[uF]
*----------------------------------------------------------------------
* Applicable Conditions:
*   Frequency Range = 100[MHz]-9[GHz]
*   Temperature = 25 degC
*   DC Bias Voltage = 0V
*   Small Signal Operation
*----------------------------------------------------------------------
.SUBCKT GCM0331C1E160JA01 Port1 Port2
C01 Port1 N01 1.60e-11
R01 Port1 N01 1.00e+10
L02 N01 N02 7.90e-12
R03 N02 N03 1.72e-01
L04 N03 N04 3.16e-11
R04 N03 N04 1.30e+00
L05 N04 N05 6.50e-13
R05 N04 N05 5.12e-03
C06 N05 N06 6.04e-10
L06 N05 N06 1.68e-12
R06 N05 N06 1.18e+00
C07 N06 N07 7.47e-11
L07 N06 N07 1.16e-11
R07 N06 N07 4.22e+00
C08 N07 N08 3.73e-11
L08 N07 N08 5.54e-12
R08 N07 N08 1.11e+00
C09 N08 Port2 7.61e-13
L09 N08 Port2 1.92e-10
R09 N08 Port2 1.00e+05
.ENDS GCM0331C1E160JA01
*----------------------------------------------------------------------
* SPICE Model generated by Murata Manufacturing Co., Ltd.
* Copyright(C) Murata Manufacturing Co., Ltd.
* Description :0603M(0201)/CG(-55to125[deg])/1.80e-05[uF]/25[V]
* Murata P/N :GCM0331C1E180GA01
* Property : C = 1.80e-05[uF]
*----------------------------------------------------------------------
* Applicable Conditions:
*   Frequency Range = 100[MHz]-9[GHz]
*   Temperature = 25 degC
*   DC Bias Voltage = 0V
*   Small Signal Operation
*----------------------------------------------------------------------
.SUBCKT GCM0331C1E180GA01 Port1 Port2
C01 Port1 N01 1.80e-11
R01 Port1 N01 1.00e+10
L02 N01 N02 1.63e-10
R03 N02 N03 1.59e-01
L04 N03 N04 1.17e-11
R04 N03 N04 2.21e-01
C05 N04 N05 1.61e-11
L05 N04 N05 2.37e-11
R05 N04 N05 2.56e+00
C06 N05 Port2 5.01e-12
L06 N05 Port2 4.81e-11
R06 N05 Port2 1.00e+05
.ENDS GCM0331C1E180GA01
*----------------------------------------------------------------------
* SPICE Model generated by Murata Manufacturing Co., Ltd.
* Copyright(C) Murata Manufacturing Co., Ltd.
* Description :0603M(0201)/CG(-55to125[deg])/1.80e-05[uF]/25[V]
* Murata P/N :GCM0331C1E180JA01
* Property : C = 1.80e-05[uF]
*----------------------------------------------------------------------
* Applicable Conditions:
*   Frequency Range = 100[MHz]-9[GHz]
*   Temperature = 25 degC
*   DC Bias Voltage = 0V
*   Small Signal Operation
*----------------------------------------------------------------------
.SUBCKT GCM0331C1E180JA01 Port1 Port2
C01 Port1 N01 1.80e-11
R01 Port1 N01 1.00e+10
L02 N01 N02 1.63e-10
R03 N02 N03 1.59e-01
L04 N03 N04 1.17e-11
R04 N03 N04 2.21e-01
C05 N04 N05 1.61e-11
L05 N04 N05 2.37e-11
R05 N04 N05 2.56e+00
C06 N05 Port2 5.01e-12
L06 N05 Port2 4.81e-11
R06 N05 Port2 1.00e+05
.ENDS GCM0331C1E180JA01
*----------------------------------------------------------------------
* SPICE Model generated by Murata Manufacturing Co., Ltd.
* Copyright(C) Murata Manufacturing Co., Ltd.
* Description :0603M(0201)/CG(-55to125[deg])/2.00e-05[uF]/25[V]
* Murata P/N :GCM0331C1E200GA01
* Property : C = 2.00e-05[uF]
*----------------------------------------------------------------------
* Applicable Conditions:
*   Frequency Range = 100[MHz]-9[GHz]
*   Temperature = 25 degC
*   DC Bias Voltage = 0V
*   Small Signal Operation
*----------------------------------------------------------------------
.SUBCKT GCM0331C1E200GA01 Port1 Port2
C01 Port1 N01 2.00e-11
R01 Port1 N01 1.00e+10
L02 N01 N02 8.49e-12
R03 N02 N03 1.53e-01
L04 N03 N04 2.89e-11
R04 N03 N04 1.20e+00
C05 N04 N05 2.54e-10
L05 N04 N05 4.00e-12
R05 N04 N05 1.38e+00
C06 N05 N06 9.18e-11
L06 N05 N06 9.49e-12
R06 N05 N06 4.05e+00
C07 N06 N07 2.37e-11
L07 N06 N07 1.20e-11
R07 N06 N07 1.30e+00
C08 N07 Port2 6.53e-13
L08 N07 Port2 1.78e-10
R08 N07 Port2 1.00e+05
.ENDS GCM0331C1E200GA01
*----------------------------------------------------------------------
* SPICE Model generated by Murata Manufacturing Co., Ltd.
* Copyright(C) Murata Manufacturing Co., Ltd.
* Description :0603M(0201)/CG(-55to125[deg])/2.00e-05[uF]/25[V]
* Murata P/N :GCM0331C1E200JA01
* Property : C = 2.00e-05[uF]
*----------------------------------------------------------------------
* Applicable Conditions:
*   Frequency Range = 100[MHz]-9[GHz]
*   Temperature = 25 degC
*   DC Bias Voltage = 0V
*   Small Signal Operation
*----------------------------------------------------------------------
.SUBCKT GCM0331C1E200JA01 Port1 Port2
C01 Port1 N01 2.00e-11
R01 Port1 N01 1.00e+10
L02 N01 N02 8.49e-12
R03 N02 N03 1.53e-01
L04 N03 N04 2.89e-11
R04 N03 N04 1.20e+00
C05 N04 N05 2.54e-10
L05 N04 N05 4.00e-12
R05 N04 N05 1.38e+00
C06 N05 N06 9.18e-11
L06 N05 N06 9.49e-12
R06 N05 N06 4.05e+00
C07 N06 N07 2.37e-11
L07 N06 N07 1.20e-11
R07 N06 N07 1.30e+00
C08 N07 Port2 6.53e-13
L08 N07 Port2 1.78e-10
R08 N07 Port2 1.00e+05
.ENDS GCM0331C1E200JA01
*----------------------------------------------------------------------
* SPICE Model generated by Murata Manufacturing Co., Ltd.
* Copyright(C) Murata Manufacturing Co., Ltd.
* Description :0603M(0201)/CG(-55to125[deg])/2.20e-05[uF]/25[V]
* Murata P/N :GCM0331C1E220GA01
* Property : C = 2.20e-05[uF]
*----------------------------------------------------------------------
* Applicable Conditions:
*   Frequency Range = 100[MHz]-9[GHz]
*   Temperature = 25 degC
*   DC Bias Voltage = 0V
*   Small Signal Operation
*----------------------------------------------------------------------
.SUBCKT GCM0331C1E220GA01 Port1 Port2
C01 Port1 N01 2.20e-11
R01 Port1 N01 1.00e+10
L02 N01 N02 2.00e-10
R03 N02 N03 1.48e-01
L04 N03 N04 1.54e-11
R04 N03 N04 2.91e-01
C05 N04 Port2 1.14e-11
L05 N04 Port2 3.02e-11
R05 N04 Port2 4.56e+00
.ENDS GCM0331C1E220GA01
*----------------------------------------------------------------------
* SPICE Model generated by Murata Manufacturing Co., Ltd.
* Copyright(C) Murata Manufacturing Co., Ltd.
* Description :0603M(0201)/CG(-55to125[deg])/2.20e-05[uF]/25[V]
* Murata P/N :GCM0331C1E220JA01
* Property : C = 2.20e-05[uF]
*----------------------------------------------------------------------
* Applicable Conditions:
*   Frequency Range = 100[MHz]-9[GHz]
*   Temperature = 25 degC
*   DC Bias Voltage = 0V
*   Small Signal Operation
*----------------------------------------------------------------------
.SUBCKT GCM0331C1E220JA01 Port1 Port2
C01 Port1 N01 2.20e-11
R01 Port1 N01 1.00e+10
L02 N01 N02 2.00e-10
R03 N02 N03 1.48e-01
L04 N03 N04 1.54e-11
R04 N03 N04 2.91e-01
C05 N04 Port2 1.14e-11
L05 N04 Port2 3.02e-11
R05 N04 Port2 4.56e+00
.ENDS GCM0331C1E220JA01
*----------------------------------------------------------------------
* SPICE Model generated by Murata Manufacturing Co., Ltd.
* Copyright(C) Murata Manufacturing Co., Ltd.
* Description :0603M(0201)/CG(-55to125[deg])/2.40e-05[uF]/25[V]
* Murata P/N :GCM0331C1E240JA01
* Property : C = 2.40e-05[uF]
*----------------------------------------------------------------------
* Applicable Conditions:
*   Frequency Range = 100[MHz]-9[GHz]
*   Temperature = 25 degC
*   DC Bias Voltage = 0V
*   Small Signal Operation
*----------------------------------------------------------------------
.SUBCKT GCM0331C1E240JA01 Port1 Port2
C01 Port1 N01 2.40e-11
R01 Port1 N01 1.00e+10
L02 N01 N02 9.66e-11
R03 N02 N03 1.49e-01
L04 N03 N04 1.62e-11
R04 N03 N04 3.11e-01
C05 N04 N05 3.75e-10
L05 N04 N05 2.55e-12
R05 N04 N05 3.45e-01
C06 N05 N06 2.54e-11
L06 N05 N06 1.55e-11
R06 N05 N06 1.77e+00
C07 N06 Port2 1.67e-12
L07 N06 Port2 1.15e-10
R07 N06 Port2 1.00e+05
.ENDS GCM0331C1E240JA01
*----------------------------------------------------------------------
* SPICE Model generated by Murata Manufacturing Co., Ltd.
* Copyright(C) Murata Manufacturing Co., Ltd.
* Description :0603M(0201)/CG(-55to125[deg])/2.70e-05[uF]/25[V]
* Murata P/N :GCM0331C1E270GA01
* Property : C = 2.70e-05[uF]
*----------------------------------------------------------------------
* Applicable Conditions:
*   Frequency Range = 100[MHz]-9[GHz]
*   Temperature = 25 degC
*   DC Bias Voltage = 0V
*   Small Signal Operation
*----------------------------------------------------------------------
.SUBCKT GCM0331C1E270GA01 Port1 Port2
C01 Port1 N01 2.70e-11
R01 Port1 N01 1.00e+10
L02 N01 N02 1.44e-10
R03 N02 N03 1.49e-01
L04 N03 N04 1.21e-11
R04 N03 N04 2.27e-01
C05 N04 N05 8.90e-12
L05 N04 N05 3.91e-11
R05 N04 N05 4.42e+00
C06 N05 Port2 3.63e-12
L06 N05 Port2 5.39e-11
R06 N05 Port2 1.00e+05
.ENDS GCM0331C1E270GA01
*----------------------------------------------------------------------
* SPICE Model generated by Murata Manufacturing Co., Ltd.
* Copyright(C) Murata Manufacturing Co., Ltd.
* Description :0603M(0201)/CG(-55to125[deg])/2.70e-05[uF]/25[V]
* Murata P/N :GCM0331C1E270JA01
* Property : C = 2.70e-05[uF]
*----------------------------------------------------------------------
* Applicable Conditions:
*   Frequency Range = 100[MHz]-9[GHz]
*   Temperature = 25 degC
*   DC Bias Voltage = 0V
*   Small Signal Operation
*----------------------------------------------------------------------
.SUBCKT GCM0331C1E270JA01 Port1 Port2
C01 Port1 N01 2.70e-11
R01 Port1 N01 1.00e+10
L02 N01 N02 1.44e-10
R03 N02 N03 1.49e-01
L04 N03 N04 1.21e-11
R04 N03 N04 2.27e-01
C05 N04 N05 8.90e-12
L05 N04 N05 3.91e-11
R05 N04 N05 4.42e+00
C06 N05 Port2 3.63e-12
L06 N05 Port2 5.39e-11
R06 N05 Port2 1.00e+05
.ENDS GCM0331C1E270JA01
*----------------------------------------------------------------------
* SPICE Model generated by Murata Manufacturing Co., Ltd.
* Copyright(C) Murata Manufacturing Co., Ltd.
* Description :0603M(0201)/CG(-55to125[deg])/3.00e-05[uF]/25[V]
* Murata P/N :GCM0331C1E300JA01
* Property : C = 3.00e-05[uF]
*----------------------------------------------------------------------
* Applicable Conditions:
*   Frequency Range = 100[MHz]-9[GHz]
*   Temperature = 25 degC
*   DC Bias Voltage = 0V
*   Small Signal Operation
*----------------------------------------------------------------------
.SUBCKT GCM0331C1E300JA01 Port1 Port2
C01 Port1 N01 3.00e-11
R01 Port1 N01 1.00e+10
L02 N01 N02 1.46e-10
R03 N02 N03 1.43e-01
L04 N03 N04 1.71e-11
R04 N03 N04 3.64e-01
C05 N04 N05 3.52e-11
L05 N04 N05 1.42e-11
R05 N04 N05 1.22e+00
C06 N05 Port2 2.32e-12
L06 N05 Port2 7.40e-11
R06 N05 Port2 1.00e+05
.ENDS GCM0331C1E300JA01
*----------------------------------------------------------------------
* SPICE Model generated by Murata Manufacturing Co., Ltd.
* Copyright(C) Murata Manufacturing Co., Ltd.
* Description :0603M(0201)/CG(-55to125[deg])/3.30e-05[uF]/25[V]
* Murata P/N :GCM0331C1E330GA01
* Property : C = 3.30e-05[uF]
*----------------------------------------------------------------------
* Applicable Conditions:
*   Frequency Range = 100[MHz]-9[GHz]
*   Temperature = 25 degC
*   DC Bias Voltage = 0V
*   Small Signal Operation
*----------------------------------------------------------------------
.SUBCKT GCM0331C1E330GA01 Port1 Port2
C01 Port1 N01 3.30e-11
R01 Port1 N01 1.00e+10
L02 N01 N02 8.57e-11
R03 N02 N03 1.46e-01
L04 N03 N04 8.46e-12
R04 N03 N04 1.11e-01
C05 N04 N05 9.36e-12
L05 N04 N05 3.54e-11
R05 N04 N05 3.63e+00
C06 N05 Port2 6.75e-13
L06 N05 Port2 1.18e-10
R06 N05 Port2 1.00e+05
.ENDS GCM0331C1E330GA01
*----------------------------------------------------------------------
* SPICE Model generated by Murata Manufacturing Co., Ltd.
* Copyright(C) Murata Manufacturing Co., Ltd.
* Description :0603M(0201)/CG(-55to125[deg])/3.30e-05[uF]/25[V]
* Murata P/N :GCM0331C1E330JA01
* Property : C = 3.30e-05[uF]
*----------------------------------------------------------------------
* Applicable Conditions:
*   Frequency Range = 100[MHz]-9[GHz]
*   Temperature = 25 degC
*   DC Bias Voltage = 0V
*   Small Signal Operation
*----------------------------------------------------------------------
.SUBCKT GCM0331C1E330JA01 Port1 Port2
C01 Port1 N01 3.30e-11
R01 Port1 N01 1.00e+10
L02 N01 N02 8.57e-11
R03 N02 N03 1.46e-01
L04 N03 N04 8.46e-12
R04 N03 N04 1.11e-01
C05 N04 N05 9.36e-12
L05 N04 N05 3.54e-11
R05 N04 N05 3.63e+00
C06 N05 Port2 6.75e-13
L06 N05 Port2 1.18e-10
R06 N05 Port2 1.00e+05
.ENDS GCM0331C1E330JA01
*----------------------------------------------------------------------
* SPICE Model generated by Murata Manufacturing Co., Ltd.
* Copyright(C) Murata Manufacturing Co., Ltd.
* Description :0603M(0201)/CG(-55to125[deg])/3.60e-05[uF]/25[V]
* Murata P/N :GCM0331C1E360GA01
* Property : C = 3.60e-05[uF]
*----------------------------------------------------------------------
* Applicable Conditions:
*   Frequency Range = 100[MHz]-9[GHz]
*   Temperature = 25 degC
*   DC Bias Voltage = 0V
*   Small Signal Operation
*----------------------------------------------------------------------
.SUBCKT GCM0331C1E360GA01 Port1 Port2
C01 Port1 N01 3.60e-11
R01 Port1 N01 1.00e+10
L02 N01 N02 1.57e-10
R03 N02 N03 1.34e-01
L04 N03 N04 2.16e-11
R04 N03 N04 2.86e-01
C05 N04 N05 4.27e-11
L05 N04 N05 1.48e-11
R05 N04 N05 1.28e+00
C06 N05 Port2 3.48e-12
L06 N05 Port2 6.21e-11
R06 N05 Port2 1.00e+05
.ENDS GCM0331C1E360GA01
*----------------------------------------------------------------------
* SPICE Model generated by Murata Manufacturing Co., Ltd.
* Copyright(C) Murata Manufacturing Co., Ltd.
* Description :0603M(0201)/CG(-55to125[deg])/3.60e-05[uF]/25[V]
* Murata P/N :GCM0331C1E360JA01
* Property : C = 3.60e-05[uF]
*----------------------------------------------------------------------
* Applicable Conditions:
*   Frequency Range = 100[MHz]-9[GHz]
*   Temperature = 25 degC
*   DC Bias Voltage = 0V
*   Small Signal Operation
*----------------------------------------------------------------------
.SUBCKT GCM0331C1E360JA01 Port1 Port2
C01 Port1 N01 3.60e-11
R01 Port1 N01 1.00e+10
L02 N01 N02 1.57e-10
R03 N02 N03 1.34e-01
L04 N03 N04 2.16e-11
R04 N03 N04 2.86e-01
C05 N04 N05 4.27e-11
L05 N04 N05 1.48e-11
R05 N04 N05 1.28e+00
C06 N05 Port2 3.48e-12
L06 N05 Port2 6.21e-11
R06 N05 Port2 1.00e+05
.ENDS GCM0331C1E360JA01
*----------------------------------------------------------------------
* SPICE Model generated by Murata Manufacturing Co., Ltd.
* Copyright(C) Murata Manufacturing Co., Ltd.
* Description :0603M(0201)/CG(-55to125[deg])/3.90e-05[uF]/25[V]
* Murata P/N :GCM0331C1E390GA01
* Property : C = 3.90e-05[uF]
*----------------------------------------------------------------------
* Applicable Conditions:
*   Frequency Range = 100[MHz]-9[GHz]
*   Temperature = 25 degC
*   DC Bias Voltage = 0V
*   Small Signal Operation
*----------------------------------------------------------------------
.SUBCKT GCM0331C1E390GA01 Port1 Port2
C01 Port1 N01 3.90e-11
R01 Port1 N01 1.00e+10
L02 N01 N02 1.64e-10
R03 N02 N03 1.30e-01
L04 N03 N04 1.62e-11
R04 N03 N04 2.03e-01
C05 N04 N05 7.01e-10
L05 N04 N05 2.28e-12
R05 N04 N05 2.49e-01
C06 N05 N06 4.12e-11
L06 N05 N06 1.60e-11
R06 N05 N06 1.47e+00
C07 N06 Port2 3.81e-12
L07 N06 Port2 5.03e-11
R07 N06 Port2 1.00e+05
.ENDS GCM0331C1E390GA01
*----------------------------------------------------------------------
* SPICE Model generated by Murata Manufacturing Co., Ltd.
* Copyright(C) Murata Manufacturing Co., Ltd.
* Description :0603M(0201)/CG(-55to125[deg])/3.90e-05[uF]/25[V]
* Murata P/N :GCM0331C1E390JA01
* Property : C = 3.90e-05[uF]
*----------------------------------------------------------------------
* Applicable Conditions:
*   Frequency Range = 100[MHz]-9[GHz]
*   Temperature = 25 degC
*   DC Bias Voltage = 0V
*   Small Signal Operation
*----------------------------------------------------------------------
.SUBCKT GCM0331C1E390JA01 Port1 Port2
C01 Port1 N01 3.90e-11
R01 Port1 N01 1.00e+10
L02 N01 N02 1.64e-10
R03 N02 N03 1.30e-01
L04 N03 N04 1.62e-11
R04 N03 N04 2.03e-01
C05 N04 N05 7.01e-10
L05 N04 N05 2.28e-12
R05 N04 N05 2.49e-01
C06 N05 N06 4.12e-11
L06 N05 N06 1.60e-11
R06 N05 N06 1.47e+00
C07 N06 Port2 3.81e-12
L07 N06 Port2 5.03e-11
R07 N06 Port2 1.00e+05
.ENDS GCM0331C1E390JA01
*----------------------------------------------------------------------
* SPICE Model generated by Murata Manufacturing Co., Ltd.
* Copyright(C) Murata Manufacturing Co., Ltd.
* Description :0603M(0201)/CG(-55to125[deg])/4.30e-05[uF]/25[V]
* Murata P/N :GCM0331C1E430JA01
* Property : C = 4.30e-05[uF]
*----------------------------------------------------------------------
* Applicable Conditions:
*   Frequency Range = 100[MHz]-9[GHz]
*   Temperature = 25 degC
*   DC Bias Voltage = 0V
*   Small Signal Operation
*----------------------------------------------------------------------
.SUBCKT GCM0331C1E430JA01 Port1 Port2
C01 Port1 N01 4.30e-11
R01 Port1 N01 1.00e+10
L02 N01 N02 7.82e-11
R03 N02 N03 1.35e-01
L04 N03 N04 1.62e-11
R04 N03 N04 2.92e-01
C05 N04 N05 4.62e-11
L05 N04 N05 1.63e-11
R05 N04 N05 1.52e+00
C06 N05 N06 1.05e-10
L06 N05 N06 3.20e-12
R06 N05 N06 8.63e-01
C07 N06 Port2 1.69e-12
L07 N06 Port2 1.22e-10
R07 N06 Port2 1.00e+05
.ENDS GCM0331C1E430JA01
*----------------------------------------------------------------------
* SPICE Model generated by Murata Manufacturing Co., Ltd.
* Copyright(C) Murata Manufacturing Co., Ltd.
* Description :0603M(0201)/CG(-55to125[deg])/4.70e-05[uF]/25[V]
* Murata P/N :GCM0331C1E470GA01
* Property : C = 4.70e-05[uF]
*----------------------------------------------------------------------
* Applicable Conditions:
*   Frequency Range = 100[MHz]-9[GHz]
*   Temperature = 25 degC
*   DC Bias Voltage = 0V
*   Small Signal Operation
*----------------------------------------------------------------------
.SUBCKT GCM0331C1E470GA01 Port1 Port2
C01 Port1 N01 4.70e-11
R01 Port1 N01 1.00e+10
L02 N01 N02 1.66e-10
R03 N02 N03 1.26e-01
L04 N03 N04 1.31e-11
R04 N03 N04 1.65e-01
C05 N04 N05 5.81e-10
L05 N04 N05 3.32e-12
R05 N04 N05 2.62e-01
C06 N05 N06 9.57e-11
L06 N05 N06 9.24e-12
R06 N05 N06 1.10e+00
C07 N06 N07 1.69e-11
L07 N06 N07 1.94e-11
R07 N06 N07 2.53e+00
C08 N07 Port2 4.90e-12
L08 N07 Port2 3.18e-11
R08 N07 Port2 1.00e+05
.ENDS GCM0331C1E470GA01
*----------------------------------------------------------------------
* SPICE Model generated by Murata Manufacturing Co., Ltd.
* Copyright(C) Murata Manufacturing Co., Ltd.
* Description :0603M(0201)/CG(-55to125[deg])/4.70e-05[uF]/25[V]
* Murata P/N :GCM0331C1E470JA01
* Property : C = 4.70e-05[uF]
*----------------------------------------------------------------------
* Applicable Conditions:
*   Frequency Range = 100[MHz]-9[GHz]
*   Temperature = 25 degC
*   DC Bias Voltage = 0V
*   Small Signal Operation
*----------------------------------------------------------------------
.SUBCKT GCM0331C1E470JA01 Port1 Port2
C01 Port1 N01 4.70e-11
R01 Port1 N01 1.00e+10
L02 N01 N02 1.66e-10
R03 N02 N03 1.26e-01
L04 N03 N04 1.31e-11
R04 N03 N04 1.65e-01
C05 N04 N05 5.81e-10
L05 N04 N05 3.32e-12
R05 N04 N05 2.62e-01
C06 N05 N06 9.57e-11
L06 N05 N06 9.24e-12
R06 N05 N06 1.10e+00
C07 N06 N07 1.69e-11
L07 N06 N07 1.94e-11
R07 N06 N07 2.53e+00
C08 N07 Port2 4.90e-12
L08 N07 Port2 3.18e-11
R08 N07 Port2 1.00e+05
.ENDS GCM0331C1E470JA01
*----------------------------------------------------------------------
* SPICE Model generated by Murata Manufacturing Co., Ltd.
* Copyright(C) Murata Manufacturing Co., Ltd.
* Description :0603M(0201)/CG(-55to125[deg])/5.10e-05[uF]/25[V]
* Murata P/N :GCM0331C1E510GA01
* Property : C = 5.10e-05[uF]
*----------------------------------------------------------------------
* Applicable Conditions:
*   Frequency Range = 100[MHz]-9[GHz]
*   Temperature = 25 degC
*   DC Bias Voltage = 0V
*   Small Signal Operation
*----------------------------------------------------------------------
.SUBCKT GCM0331C1E510GA01 Port1 Port2
C01 Port1 N01 5.10e-11
R01 Port1 N01 1.00e+10
L02 N01 N02 1.69e-10
R03 N02 N03 1.20e-01
L04 N03 N04 1.28e-11
R04 N03 N04 1.60e-01
C05 N04 N05 6.14e-10
L05 N04 N05 3.77e-12
R05 N04 N05 2.71e-01
C06 N05 N06 6.90e-11
L06 N05 N06 1.46e-11
R06 N05 N06 1.42e+00
C07 N06 N07 2.93e-11
L07 N06 N07 1.14e-11
R07 N06 N07 1.71e+00
C08 N07 Port2 5.85e-12
L08 N07 Port2 3.59e-11
R08 N07 Port2 1.00e+05
.ENDS GCM0331C1E510GA01
*----------------------------------------------------------------------
* SPICE Model generated by Murata Manufacturing Co., Ltd.
* Copyright(C) Murata Manufacturing Co., Ltd.
* Description :0603M(0201)/CG(-55to125[deg])/5.10e-05[uF]/25[V]
* Murata P/N :GCM0331C1E510JA01
* Property : C = 5.10e-05[uF]
*----------------------------------------------------------------------
* Applicable Conditions:
*   Frequency Range = 100[MHz]-9[GHz]
*   Temperature = 25 degC
*   DC Bias Voltage = 0V
*   Small Signal Operation