*----------------------------------------------------------------------
* SPICE Model generated by Murata Manufacturing Co., Ltd.
* Copyright(C) Murata Manufacturing Co., Ltd.
* Description :1005M(0402)/C0G(-55to125[deg])/1.00e-05[uF]/50[V]
* Murata P/N :GCQ1555C1H100FB01
* Property : C = 1.00e-05[uF]
*----------------------------------------------------------------------
* Applicable Conditions:
*   Frequency Range = 100[MHz]-9[GHz]
*   Temperature = 25 degC
*   DC Bias Voltage = 0V
*   Small Signal Operation
*----------------------------------------------------------------------
.SUBCKT GCQ1555C1H100FB01 Port1 Port2
C01 Port1 N01 1.00e-11
R01 Port1 N01 1.00e+11
L02 N01 N02 1.63e-10
R03 N02 N03 8.00e-02
L04 N03 N04 6.08e-12
R04 N03 N04 1.07e-01
C05 N04 N05 4.67e-11
L05 N04 N05 1.23e-11
R05 N04 N05 1.40e+01
C06 N05 N06 4.08e-11
L06 N05 N06 8.15e-12
R06 N05 N06 2.10e+00
C07 N06 Port2 1.89e-12
L07 N06 Port2 1.31e-10
R07 N06 Port2 1.00e+05
.ENDS GCQ1555C1H100FB01
*----------------------------------------------------------------------
* SPICE Model generated by Murata Manufacturing Co., Ltd.
* Copyright(C) Murata Manufacturing Co., Ltd.
* Description :1005M(0402)/C0G(-55to125[deg])/1.00e-05[uF]/50[V]
* Murata P/N :GCQ1555C1H100GB01
* Property : C = 1.00e-05[uF]
*----------------------------------------------------------------------
* Applicable Conditions:
*   Frequency Range = 100[MHz]-9[GHz]
*   Temperature = 25 degC
*   DC Bias Voltage = 0V
*   Small Signal Operation
*----------------------------------------------------------------------
.SUBCKT GCQ1555C1H100GB01 Port1 Port2
C01 Port1 N01 1.00e-11
R01 Port1 N01 1.00e+11
L02 N01 N02 1.63e-10
R03 N02 N03 8.00e-02
L04 N03 N04 6.08e-12
R04 N03 N04 1.07e-01
C05 N04 N05 4.67e-11
L05 N04 N05 1.23e-11
R05 N04 N05 1.40e+01
C06 N05 N06 4.08e-11
L06 N05 N06 8.15e-12
R06 N05 N06 2.10e+00
C07 N06 Port2 1.89e-12
L07 N06 Port2 1.31e-10
R07 N06 Port2 1.00e+05
.ENDS GCQ1555C1H100GB01
*----------------------------------------------------------------------
* SPICE Model generated by Murata Manufacturing Co., Ltd.
* Copyright(C) Murata Manufacturing Co., Ltd.
* Description :1005M(0402)/C0G(-55to125[deg])/1.00e-05[uF]/50[V]
* Murata P/N :GCQ1555C1H100JB01
* Property : C = 1.00e-05[uF]
*----------------------------------------------------------------------
* Applicable Conditions:
*   Frequency Range = 100[MHz]-9[GHz]
*   Temperature = 25 degC
*   DC Bias Voltage = 0V
*   Small Signal Operation
*----------------------------------------------------------------------
.SUBCKT GCQ1555C1H100JB01 Port1 Port2
C01 Port1 N01 1.00e-11
R01 Port1 N01 1.00e+11
L02 N01 N02 1.63e-10
R03 N02 N03 8.00e-02
L04 N03 N04 6.08e-12
R04 N03 N04 1.07e-01
C05 N04 N05 4.67e-11
L05 N04 N05 1.23e-11
R05 N04 N05 1.40e+01
C06 N05 N06 4.08e-11
L06 N05 N06 8.15e-12
R06 N05 N06 2.10e+00
C07 N06 Port2 1.89e-12
L07 N06 Port2 1.31e-10
R07 N06 Port2 1.00e+05
.ENDS GCQ1555C1H100JB01
*----------------------------------------------------------------------
* SPICE Model generated by Murata Manufacturing Co., Ltd.
* Copyright(C) Murata Manufacturing Co., Ltd.
* Description :1005M(0402)/C0G(-55to125[deg])/1.10e-05[uF]/50[V]
* Murata P/N :GCQ1555C1H110GB01
* Property : C = 1.10e-05[uF]
*----------------------------------------------------------------------
* Applicable Conditions:
*   Frequency Range = 100[MHz]-9[GHz]
*   Temperature = 25 degC
*   DC Bias Voltage = 0V
*   Small Signal Operation
*----------------------------------------------------------------------
.SUBCKT GCQ1555C1H110GB01 Port1 Port2
C01 Port1 N01 1.10e-11
R01 Port1 N01 1.00e+11
L02 N01 N02 1.81e-10
R03 N02 N03 7.91e-02
L04 N03 N04 5.59e-12
R04 N03 N04 9.79e-02
C05 N04 N05 4.47e-11
L05 N04 N05 1.39e-11
R05 N04 N05 1.37e+01
C06 N05 N06 4.59e-12
L06 N05 N06 5.35e-11
R06 N05 N06 1.00e+05
C07 N06 Port2 4.22e-12
L07 N06 Port2 4.95e-11
R07 N06 Port2 7.37e+01
.ENDS GCQ1555C1H110GB01
*----------------------------------------------------------------------
* SPICE Model generated by Murata Manufacturing Co., Ltd.
* Copyright(C) Murata Manufacturing Co., Ltd.
* Description :1005M(0402)/C0G(-55to125[deg])/1.10e-05[uF]/50[V]
* Murata P/N :GCQ1555C1H110JB01
* Property : C = 1.10e-05[uF]
*----------------------------------------------------------------------
* Applicable Conditions:
*   Frequency Range = 100[MHz]-9[GHz]
*   Temperature = 25 degC
*   DC Bias Voltage = 0V
*   Small Signal Operation
*----------------------------------------------------------------------
.SUBCKT GCQ1555C1H110JB01 Port1 Port2
C01 Port1 N01 1.10e-11
R01 Port1 N01 1.00e+11
L02 N01 N02 1.81e-10
R03 N02 N03 7.91e-02
L04 N03 N04 5.59e-12
R04 N03 N04 9.79e-02
C05 N04 N05 4.47e-11
L05 N04 N05 1.39e-11
R05 N04 N05 1.37e+01
C06 N05 N06 4.59e-12
L06 N05 N06 5.35e-11
R06 N05 N06 1.00e+05
C07 N06 Port2 4.22e-12
L07 N06 Port2 4.95e-11
R07 N06 Port2 7.37e+01
.ENDS GCQ1555C1H110JB01
*----------------------------------------------------------------------
* SPICE Model generated by Murata Manufacturing Co., Ltd.
* Copyright(C) Murata Manufacturing Co., Ltd.
* Description :1005M(0402)/C0G(-55to125[deg])/1.20e-05[uF]/50[V]
* Murata P/N :GCQ1555C1H120FB01
* Property : C = 1.20e-05[uF]
*----------------------------------------------------------------------
* Applicable Conditions:
*   Frequency Range = 100[MHz]-9[GHz]
*   Temperature = 25 degC
*   DC Bias Voltage = 0V
*   Small Signal Operation
*----------------------------------------------------------------------
.SUBCKT GCQ1555C1H120FB01 Port1 Port2
C01 Port1 N01 1.20e-11
R01 Port1 N01 1.00e+11
L02 N01 N02 9.70e-11
R03 N02 N03 8.00e-02
L04 N03 N04 5.86e-12
R04 N03 N04 7.37e-02
C05 N04 N05 1.34e-12
L05 N04 N05 1.71e-10
C06 N05 N06 2.34e-11
L06 N05 N06 1.35e-11
R06 N05 N06 7.91e+00
C07 N06 Port2 6.03e-11
L07 N06 Port2 1.17e-11
R07 N06 Port2 1.17e+01
.ENDS GCQ1555C1H120FB01
*----------------------------------------------------------------------
* SPICE Model generated by Murata Manufacturing Co., Ltd.
* Copyright(C) Murata Manufacturing Co., Ltd.
* Description :1005M(0402)/C0G(-55to125[deg])/1.20e-05[uF]/50[V]
* Murata P/N :GCQ1555C1H120GB01
* Property : C = 1.20e-05[uF]
*----------------------------------------------------------------------
* Applicable Conditions:
*   Frequency Range = 100[MHz]-9[GHz]
*   Temperature = 25 degC
*   DC Bias Voltage = 0V
*   Small Signal Operation
*----------------------------------------------------------------------
.SUBCKT GCQ1555C1H120GB01 Port1 Port2
C01 Port1 N01 1.20e-11
R01 Port1 N01 1.00e+11
L02 N01 N02 9.70e-11
R03 N02 N03 8.00e-02
L04 N03 N04 5.86e-12
R04 N03 N04 7.37e-02
C05 N04 N05 1.34e-12
L05 N04 N05 1.71e-10
C06 N05 N06 2.34e-11
L06 N05 N06 1.35e-11
R06 N05 N06 7.91e+00
C07 N06 Port2 6.03e-11
L07 N06 Port2 1.17e-11
R07 N06 Port2 1.17e+01
.ENDS GCQ1555C1H120GB01
*----------------------------------------------------------------------
* SPICE Model generated by Murata Manufacturing Co., Ltd.
* Copyright(C) Murata Manufacturing Co., Ltd.
* Description :1005M(0402)/C0G(-55to125[deg])/1.20e-05[uF]/50[V]
* Murata P/N :GCQ1555C1H120JB01
* Property : C = 1.20e-05[uF]
*----------------------------------------------------------------------
* Applicable Conditions:
*   Frequency Range = 100[MHz]-9[GHz]
*   Temperature = 25 degC
*   DC Bias Voltage = 0V
*   Small Signal Operation
*----------------------------------------------------------------------
.SUBCKT GCQ1555C1H120JB01 Port1 Port2
C01 Port1 N01 1.20e-11
R01 Port1 N01 1.00e+11
L02 N01 N02 9.70e-11
R03 N02 N03 8.00e-02
L04 N03 N04 5.86e-12
R04 N03 N04 7.37e-02
C05 N04 N05 1.34e-12
L05 N04 N05 1.71e-10
C06 N05 N06 2.34e-11
L06 N05 N06 1.35e-11
R06 N05 N06 7.91e+00
C07 N06 Port2 6.03e-11
L07 N06 Port2 1.17e-11
R07 N06 Port2 1.17e+01
.ENDS GCQ1555C1H120JB01
*----------------------------------------------------------------------
* SPICE Model generated by Murata Manufacturing Co., Ltd.
* Copyright(C) Murata Manufacturing Co., Ltd.
* Description :1005M(0402)/C0G(-55to125[deg])/1.30e-05[uF]/50[V]
* Murata P/N :GCQ1555C1H130GB01
* Property : C = 1.30e-05[uF]
*----------------------------------------------------------------------
* Applicable Conditions:
*   Frequency Range = 100[MHz]-9[GHz]
*   Temperature = 25 degC
*   DC Bias Voltage = 0V
*   Small Signal Operation
*----------------------------------------------------------------------
.SUBCKT GCQ1555C1H130GB01 Port1 Port2
C01 Port1 N01 1.30e-11
R01 Port1 N01 1.00e+11
L02 N01 N02 9.24e-11
R03 N02 N03 7.89e-02
L04 N03 N04 7.37e-12
R04 N03 N04 4.70e-01
L05 N04 N05 9.88e-12
R05 N04 N05 2.73e-02
C06 N05 N06 5.73e-11
L06 N05 N06 1.17e-11
R06 N05 N06 1.19e+01
C07 N06 N07 5.31e-12
L07 N06 N07 5.07e-11
R07 N06 N07 7.90e+01
C08 N07 Port2 1.53e-12
L08 N07 Port2 1.59e-10
R08 N07 Port2 1.00e+05
.ENDS GCQ1555C1H130GB01
*----------------------------------------------------------------------
* SPICE Model generated by Murata Manufacturing Co., Ltd.
* Copyright(C) Murata Manufacturing Co., Ltd.
* Description :1005M(0402)/C0G(-55to125[deg])/1.30e-05[uF]/50[V]
* Murata P/N :GCQ1555C1H130JB01
* Property : C = 1.30e-05[uF]
*----------------------------------------------------------------------
* Applicable Conditions:
*   Frequency Range = 100[MHz]-9[GHz]
*   Temperature = 25 degC
*   DC Bias Voltage = 0V
*   Small Signal Operation
*----------------------------------------------------------------------
.SUBCKT GCQ1555C1H130JB01 Port1 Port2
C01 Port1 N01 1.30e-11
R01 Port1 N01 1.00e+11
L02 N01 N02 9.24e-11
R03 N02 N03 7.89e-02
L04 N03 N04 7.37e-12
R04 N03 N04 4.70e-01
L05 N04 N05 9.88e-12
R05 N04 N05 2.73e-02
C06 N05 N06 5.73e-11
L06 N05 N06 1.17e-11
R06 N05 N06 1.19e+01
C07 N06 N07 5.31e-12
L07 N06 N07 5.07e-11
R07 N06 N07 7.90e+01
C08 N07 Port2 1.53e-12
L08 N07 Port2 1.59e-10
R08 N07 Port2 1.00e+05
.ENDS GCQ1555C1H130JB01
*----------------------------------------------------------------------
* SPICE Model generated by Murata Manufacturing Co., Ltd.
* Copyright(C) Murata Manufacturing Co., Ltd.
* Description :1005M(0402)/C0G(-55to125[deg])/1.50e-05[uF]/50[V]
* Murata P/N :GCQ1555C1H150FB01
* Property : C = 1.50e-05[uF]
*----------------------------------------------------------------------
* Applicable Conditions:
*   Frequency Range = 100[MHz]-9[GHz]
*   Temperature = 25 degC
*   DC Bias Voltage = 0V
*   Small Signal Operation
*----------------------------------------------------------------------
.SUBCKT GCQ1555C1H150FB01 Port1 Port2
C01 Port1 N01 1.50e-11
R01 Port1 N01 1.00e+11
L02 N01 N02 3.36e-11
R03 N02 N03 7.92e-02
L04 N03 N04 3.95e-12
R04 N03 N04 8.90e-02
C05 N04 N05 7.22e-11
L05 N04 N05 1.17e-11
R05 N04 N05 1.08e+01
C06 N05 N06 7.71e-12
L06 N05 N06 4.36e-11
R06 N05 N06 5.51e+01
C07 N06 Port2 6.98e-13
L07 N06 Port2 2.14e-10
R07 N06 Port2 1.00e+05
.ENDS GCQ1555C1H150FB01
*----------------------------------------------------------------------
* SPICE Model generated by Murata Manufacturing Co., Ltd.
* Copyright(C) Murata Manufacturing Co., Ltd.
* Description :1005M(0402)/C0G(-55to125[deg])/1.50e-05[uF]/50[V]
* Murata P/N :GCQ1555C1H150GB01
* Property : C = 1.50e-05[uF]
*----------------------------------------------------------------------
* Applicable Conditions:
*   Frequency Range = 100[MHz]-9[GHz]
*   Temperature = 25 degC
*   DC Bias Voltage = 0V
*   Small Signal Operation
*----------------------------------------------------------------------
.SUBCKT GCQ1555C1H150GB01 Port1 Port2
C01 Port1 N01 1.50e-11
R01 Port1 N01 1.00e+11
L02 N01 N02 3.36e-11
R03 N02 N03 7.92e-02
L04 N03 N04 3.95e-12
R04 N03 N04 8.90e-02
C05 N04 N05 7.22e-11
L05 N04 N05 1.17e-11
R05 N04 N05 1.08e+01
C06 N05 N06 7.71e-12
L06 N05 N06 4.36e-11
R06 N05 N06 5.51e+01
C07 N06 Port2 6.98e-13
L07 N06 Port2 2.14e-10
R07 N06 Port2 1.00e+05
.ENDS GCQ1555C1H150GB01
*----------------------------------------------------------------------
* SPICE Model generated by Murata Manufacturing Co., Ltd.
* Copyright(C) Murata Manufacturing Co., Ltd.
* Description :1005M(0402)/C0G(-55to125[deg])/1.50e-05[uF]/50[V]
* Murata P/N :GCQ1555C1H150JB01
* Property : C = 1.50e-05[uF]
*----------------------------------------------------------------------
* Applicable Conditions:
*   Frequency Range = 100[MHz]-9[GHz]
*   Temperature = 25 degC
*   DC Bias Voltage = 0V
*   Small Signal Operation
*----------------------------------------------------------------------
.SUBCKT GCQ1555C1H150JB01 Port1 Port2
C01 Port1 N01 1.50e-11
R01 Port1 N01 1.00e+11
L02 N01 N02 3.36e-11
R03 N02 N03 7.92e-02
L04 N03 N04 3.95e-12
R04 N03 N04 8.90e-02
C05 N04 N05 7.22e-11
L05 N04 N05 1.17e-11
R05 N04 N05 1.08e+01
C06 N05 N06 7.71e-12
L06 N05 N06 4.36e-11
R06 N05 N06 5.51e+01
C07 N06 Port2 6.98e-13
L07 N06 Port2 2.14e-10
R07 N06 Port2 1.00e+05
.ENDS GCQ1555C1H150JB01
*----------------------------------------------------------------------
* SPICE Model generated by Murata Manufacturing Co., Ltd.
* Copyright(C) Murata Manufacturing Co., Ltd.
* Description :1005M(0402)/C0G(-55to125[deg])/1.60e-05[uF]/50[V]
* Murata P/N :GCQ1555C1H160GB01
* Property : C = 1.60e-05[uF]
*----------------------------------------------------------------------
* Applicable Conditions:
*   Frequency Range = 100[MHz]-9[GHz]
*   Temperature = 25 degC
*   DC Bias Voltage = 0V
*   Small Signal Operation
*----------------------------------------------------------------------
.SUBCKT GCQ1555C1H160GB01 Port1 Port2
C01 Port1 N01 1.60e-11
R01 Port1 N01 1.00e+11
L02 N01 N02 2.41e-10
R03 N02 N03 7.35e-02
L04 N03 N04 7.87e-12
R04 N03 N04 2.84e-02
C05 N04 N05 7.02e-11
L05 N04 N05 1.28e-11
R05 N04 N05 1.04e+01
C06 N05 Port2 7.18e-12
L06 N05 Port2 5.20e-11
R06 N05 Port2 6.84e+01
.ENDS GCQ1555C1H160GB01
*----------------------------------------------------------------------
* SPICE Model generated by Murata Manufacturing Co., Ltd.
* Copyright(C) Murata Manufacturing Co., Ltd.
* Description :1005M(0402)/C0G(-55to125[deg])/1.60e-05[uF]/50[V]
* Murata P/N :GCQ1555C1H160JB01
* Property : C = 1.60e-05[uF]
*----------------------------------------------------------------------
* Applicable Conditions:
*   Frequency Range = 100[MHz]-9[GHz]
*   Temperature = 25 degC
*   DC Bias Voltage = 0V
*   Small Signal Operation
*----------------------------------------------------------------------
.SUBCKT GCQ1555C1H160JB01 Port1 Port2
C01 Port1 N01 1.60e-11
R01 Port1 N01 1.00e+11
L02 N01 N02 2.41e-10
R03 N02 N03 7.35e-02
L04 N03 N04 7.87e-12
R04 N03 N04 2.84e-02
C05 N04 N05 7.02e-11
L05 N04 N05 1.28e-11
R05 N04 N05 1.04e+01
C06 N05 Port2 7.18e-12
L06 N05 Port2 5.20e-11
R06 N05 Port2 6.84e+01
.ENDS GCQ1555C1H160JB01
*----------------------------------------------------------------------
* SPICE Model generated by Murata Manufacturing Co., Ltd.
* Copyright(C) Murata Manufacturing Co., Ltd.
* Description :1005M(0402)/C0G(-55to125[deg])/1.80e-05[uF]/50[V]
* Murata P/N :GCQ1555C1H180FB01
* Property : C = 1.80e-05[uF]
*----------------------------------------------------------------------
* Applicable Conditions:
*   Frequency Range = 100[MHz]-9[GHz]
*   Temperature = 25 degC
*   DC Bias Voltage = 0V
*   Small Signal Operation
*----------------------------------------------------------------------
.SUBCKT GCQ1555C1H180FB01 Port1 Port2
C01 Port1 N01 1.80e-11
R01 Port1 N01 1.00e+11
L02 N01 N02 1.00e-11
R03 N02 N03 8.00e-02
L04 N03 N04 3.12e-12
R04 N03 N04 3.92e-02
C05 N04 N05 9.44e-13
L05 N04 N05 1.99e-10
C06 N05 N06 6.96e-12
L06 N05 N06 3.01e-11
R06 N05 N06 2.23e+01
C07 N06 N07 1.17e-11
L07 N06 N07 3.80e-11
R07 N06 N07 4.21e+01
C08 N07 Port2 8.73e-11
L08 N07 Port2 1.21e-11
R08 N07 Port2 1.06e+01
.ENDS GCQ1555C1H180FB01
*----------------------------------------------------------------------
* SPICE Model generated by Murata Manufacturing Co., Ltd.
* Copyright(C) Murata Manufacturing Co., Ltd.
* Description :1005M(0402)/C0G(-55to125[deg])/1.80e-05[uF]/50[V]
* Murata P/N :GCQ1555C1H180GB01
* Property : C = 1.80e-05[uF]
*----------------------------------------------------------------------
* Applicable Conditions:
*   Frequency Range = 100[MHz]-9[GHz]
*   Temperature = 25 degC
*   DC Bias Voltage = 0V
*   Small Signal Operation
*----------------------------------------------------------------------
.SUBCKT GCQ1555C1H180GB01 Port1 Port2
C01 Port1 N01 1.80e-11
R01 Port1 N01 1.00e+11
L02 N01 N02 1.00e-11
R03 N02 N03 8.00e-02
L04 N03 N04 3.12e-12
R04 N03 N04 3.92e-02
C05 N04 N05 9.44e-13
L05 N04 N05 1.99e-10
C06 N05 N06 6.96e-12
L06 N05 N06 3.01e-11
R06 N05 N06 2.23e+01
C07 N06 N07 1.17e-11
L07 N06 N07 3.80e-11
R07 N06 N07 4.21e+01
C08 N07 Port2 8.73e-11
L08 N07 Port2 1.21e-11
R08 N07 Port2 1.06e+01
.ENDS GCQ1555C1H180GB01
*----------------------------------------------------------------------
* SPICE Model generated by Murata Manufacturing Co., Ltd.
* Copyright(C) Murata Manufacturing Co., Ltd.
* Description :1005M(0402)/C0G(-55to125[deg])/1.80e-05[uF]/50[V]
* Murata P/N :GCQ1555C1H180JB01
* Property : C = 1.80e-05[uF]
*----------------------------------------------------------------------
* Applicable Conditions:
*   Frequency Range = 100[MHz]-9[GHz]
*   Temperature = 25 degC
*   DC Bias Voltage = 0V
*   Small Signal Operation
*----------------------------------------------------------------------
.SUBCKT GCQ1555C1H180JB01 Port1 Port2
C01 Port1 N01 1.80e-11
R01 Port1 N01 1.00e+11
L02 N01 N02 1.00e-11
R03 N02 N03 8.00e-02
L04 N03 N04 3.12e-12
R04 N03 N04 3.92e-02
C05 N04 N05 9.44e-13
L05 N04 N05 1.99e-10
C06 N05 N06 6.96e-12
L06 N05 N06 3.01e-11
R06 N05 N06 2.23e+01
C07 N06 N07 1.17e-11
L07 N06 N07 3.80e-11
R07 N06 N07 4.21e+01
C08 N07 Port2 8.73e-11
L08 N07 Port2 1.21e-11
R08 N07 Port2 1.06e+01
.ENDS GCQ1555C1H180JB01
*----------------------------------------------------------------------
* SPICE Model generated by Murata Manufacturing Co., Ltd.
* Copyright(C) Murata Manufacturing Co., Ltd.
* Description :1005M(0402)/C0G(-55to125[deg])/1.00e-06[uF]/50[V]
* Murata P/N :GCQ1555C1H1R0BB01
* Property : C = 1.00e-06[uF]
*----------------------------------------------------------------------
* Applicable Conditions:
*   Frequency Range = 100[MHz]-20[GHz]
*   Temperature = 25 degC
*   DC Bias Voltage = 0V
*   Small Signal Operation
*----------------------------------------------------------------------
.SUBCKT GCQ1555C1H1R0BB01 Port1 Port2
C01 Port1 N01 1.00e-12
R01 Port1 N01 1.00e+11
L02 N01 N02 3.46e-10
R03 N02 N03 2.30e-01
C04 N03 Port2 8.69e-13
L04 N03 Port2 7.01e-11
R04 N03 Port2 4.11e+02
.ENDS GCQ1555C1H1R0BB01
*----------------------------------------------------------------------
* SPICE Model generated by Murata Manufacturing Co., Ltd.
* Copyright(C) Murata Manufacturing Co., Ltd.
* Description :1005M(0402)/C0G(-55to125[deg])/1.00e-06[uF]/50[V]
* Murata P/N :GCQ1555C1H1R0CB01
* Property : C = 1.00e-06[uF]
*----------------------------------------------------------------------
* Applicable Conditions:
*   Frequency Range = 100[MHz]-20[GHz]
*   Temperature = 25 degC
*   DC Bias Voltage = 0V
*   Small Signal Operation
*----------------------------------------------------------------------
.SUBCKT GCQ1555C1H1R0CB01 Port1 Port2
C01 Port1 N01 1.00e-12
R01 Port1 N01 1.00e+11
L02 N01 N02 3.46e-10
R03 N02 N03 2.30e-01
C04 N03 Port2 8.69e-13
L04 N03 Port2 7.01e-11
R04 N03 Port2 4.11e+02
.ENDS GCQ1555C1H1R0CB01
*----------------------------------------------------------------------
* SPICE Model generated by Murata Manufacturing Co., Ltd.
* Copyright(C) Murata Manufacturing Co., Ltd.
* Description :1005M(0402)/C0G(-55to125[deg])/1.00e-06[uF]/50[V]
* Murata P/N :GCQ1555C1H1R0WB01
* Property : C = 1.00e-06[uF]
*----------------------------------------------------------------------
* Applicable Conditions:
*   Frequency Range = 100[MHz]-20[GHz]
*   Temperature = 25 degC
*   DC Bias Voltage = 0V
*   Small Signal Operation
*----------------------------------------------------------------------
.SUBCKT GCQ1555C1H1R0WB01 Port1 Port2
C01 Port1 N01 1.00e-12
R01 Port1 N01 1.00e+11
L02 N01 N02 3.46e-10
R03 N02 N03 2.30e-01
C04 N03 Port2 8.69e-13
L04 N03 Port2 7.01e-11
R04 N03 Port2 4.11e+02
.ENDS GCQ1555C1H1R0WB01
*----------------------------------------------------------------------
* SPICE Model generated by Murata Manufacturing Co., Ltd.
* Copyright(C) Murata Manufacturing Co., Ltd.
* Description :1005M(0402)/C0G(-55to125[deg])/1.10e-06[uF]/50[V]
* Murata P/N :GCQ1555C1H1R1BB01
* Property : C = 1.10e-06[uF]
*----------------------------------------------------------------------
* Applicable Conditions:
*   Frequency Range = 100[MHz]-9[GHz]
*   Temperature = 25 degC
*   DC Bias Voltage = 0V
*   Small Signal Operation
*----------------------------------------------------------------------
.SUBCKT GCQ1555C1H1R1BB01 Port1 Port2
C01 Port1 N01 1.10e-12
R01 Port1 N01 1.00e+11
L02 N01 N02 3.52e-10
R03 N02 N03 2.30e-01
C04 N03 Port2 2.22e-10
L04 N03 Port2 1.32e-12
R04 N03 Port2 2.28e-01
.ENDS GCQ1555C1H1R1BB01
*----------------------------------------------------------------------
* SPICE Model generated by Murata Manufacturing Co., Ltd.
* Copyright(C) Murata Manufacturing Co., Ltd.
* Description :1005M(0402)/C0G(-55to125[deg])/1.10e-06[uF]/50[V]
* Murata P/N :GCQ1555C1H1R1CB01
* Property : C = 1.10e-06[uF]
*----------------------------------------------------------------------
* Applicable Conditions:
*   Frequency Range = 100[MHz]-9[GHz]
*   Temperature = 25 degC
*   DC Bias Voltage = 0V
*   Small Signal Operation
*----------------------------------------------------------------------
.SUBCKT GCQ1555C1H1R1CB01 Port1 Port2
C01 Port1 N01 1.10e-12
R01 Port1 N01 1.00e+11
L02 N01 N02 3.52e-10
R03 N02 N03 2.30e-01
C04 N03 Port2 2.22e-10
L04 N03 Port2 1.32e-12
R04 N03 Port2 2.28e-01
.ENDS GCQ1555C1H1R1CB01
*----------------------------------------------------------------------
* SPICE Model generated by Murata Manufacturing Co., Ltd.
* Copyright(C) Murata Manufacturing Co., Ltd.
* Description :1005M(0402)/C0G(-55to125[deg])/1.10e-06[uF]/50[V]
* Murata P/N :GCQ1555C1H1R1WB01
* Property : C = 1.10e-06[uF]
*----------------------------------------------------------------------
* Applicable Conditions:
*   Frequency Range = 100[MHz]-9[GHz]
*   Temperature = 25 degC
*   DC Bias Voltage = 0V
*   Small Signal Operation
*----------------------------------------------------------------------
.SUBCKT GCQ1555C1H1R1WB01 Port1 Port2
C01 Port1 N01 1.10e-12
R01 Port1 N01 1.00e+11
L02 N01 N02 3.52e-10
R03 N02 N03 2.30e-01
C04 N03 Port2 2.22e-10
L04 N03 Port2 1.32e-12
R04 N03 Port2 2.28e-01
.ENDS GCQ1555C1H1R1WB01
*----------------------------------------------------------------------
* SPICE Model generated by Murata Manufacturing Co., Ltd.
* Copyright(C) Murata Manufacturing Co., Ltd.
* Description :1005M(0402)/C0G(-55to125[deg])/1.20e-06[uF]/50[V]
* Murata P/N :GCQ1555C1H1R2BB01
* Property : C = 1.20e-06[uF]
*----------------------------------------------------------------------
* Applicable Conditions:
*   Frequency Range = 100[MHz]-9[GHz]
*   Temperature = 25 degC
*   DC Bias Voltage = 0V
*   Small Signal Operation
*----------------------------------------------------------------------
.SUBCKT GCQ1555C1H1R2BB01 Port1 Port2
C01 Port1 N01 1.20e-12
R01 Port1 N01 1.00e+11
L02 N01 N02 3.52e-10
R03 N02 N03 2.30e-01
C04 N03 Port2 2.22e-10
L04 N03 Port2 1.32e-12
R04 N03 Port2 2.28e-01
.ENDS GCQ1555C1H1R2BB01
*----------------------------------------------------------------------
* SPICE Model generated by Murata Manufacturing Co., Ltd.
* Copyright(C) Murata Manufacturing Co., Ltd.
* Description :1005M(0402)/C0G(-55to125[deg])/1.20e-06[uF]/50[V]
* Murata P/N :GCQ1555C1H1R2CB01
* Property : C = 1.20e-06[uF]
*----------------------------------------------------------------------
* Applicable Conditions:
*   Frequency Range = 100[MHz]-9[GHz]
*   Temperature = 25 degC
*   DC Bias Voltage = 0V
*   Small Signal Operation
*----------------------------------------------------------------------
.SUBCKT GCQ1555C1H1R2CB01 Port1 Port2
C01 Port1 N01 1.20e-12
R01 Port1 N01 1.00e+11
L02 N01 N02 3.52e-10
R03 N02 N03 2.30e-01
C04 N03 Port2 2.22e-10
L04 N03 Port2 1.32e-12
R04 N03 Port2 2.28e-01
.ENDS GCQ1555C1H1R2CB01
*----------------------------------------------------------------------
* SPICE Model generated by Murata Manufacturing Co., Ltd.
* Copyright(C) Murata Manufacturing Co., Ltd.
* Description :1005M(0402)/C0G(-55to125[deg])/1.20e-06[uF]/50[V]
* Murata P/N :GCQ1555C1H1R2WB01
* Property : C = 1.20e-06[uF]
*----------------------------------------------------------------------
* Applicable Conditions:
*   Frequency Range = 100[MHz]-9[GHz]
*   Temperature = 25 degC
*   DC Bias Voltage = 0V
*   Small Signal Operation
*----------------------------------------------------------------------
.SUBCKT GCQ1555C1H1R2WB01 Port1 Port2
C01 Port1 N01 1.20e-12
R01 Port1 N01 1.00e+11
L02 N01 N02 3.52e-10
R03 N02 N03 2.30e-01
C04 N03 Port2 2.22e-10
L04 N03 Port2 1.32e-12
R04 N03 Port2 2.28e-01
.ENDS GCQ1555C1H1R2WB01
*----------------------------------------------------------------------
* SPICE Model generated by Murata Manufacturing Co., Ltd.
* Copyright(C) Murata Manufacturing Co., Ltd.
* Description :1005M(0402)/C0G(-55to125[deg])/1.30e-06[uF]/50[V]
* Murata P/N :GCQ1555C1H1R3BB01
* Property : C = 1.30e-06[uF]
*----------------------------------------------------------------------
* Applicable Conditions:
*   Frequency Range = 100[MHz]-9[GHz]
*   Temperature = 25 degC
*   DC Bias Voltage = 0V
*   Small Signal Operation
*----------------------------------------------------------------------
.SUBCKT GCQ1555C1H1R3BB01 Port1 Port2
C01 Port1 N01 1.30e-12
R01 Port1 N01 1.00e+11
L02 N01 N02 3.52e-10
R03 N02 N03 2.30e-01
C04 N03 Port2 2.22e-10
L04 N03 Port2 1.32e-12
R04 N03 Port2 2.28e-01
.ENDS GCQ1555C1H1R3BB01
*----------------------------------------------------------------------
* SPICE Model generated by Murata Manufacturing Co., Ltd.
* Copyright(C) Murata Manufacturing Co., Ltd.
* Description :1005M(0402)/C0G(-55to125[deg])/1.30e-06[uF]/50[V]
* Murata P/N :GCQ1555C1H1R3CB01
* Property : C = 1.30e-06[uF]
*----------------------------------------------------------------------
* Applicable Conditions:
*   Frequency Range = 100[MHz]-9[GHz]
*   Temperature = 25 degC
*   DC Bias Voltage = 0V
*   Small Signal Operation
*----------------------------------------------------------------------
.SUBCKT GCQ1555C1H1R3CB01 Port1 Port2
C01 Port1 N01 1.30e-12
R01 Port1 N01 1.00e+11
L02 N01 N02 3.52e-10
R03 N02 N03 2.30e-01
C04 N03 Port2 2.22e-10
L04 N03 Port2 1.32e-12
R04 N03 Port2 2.28e-01
.ENDS GCQ1555C1H1R3CB01
*----------------------------------------------------------------------
* SPICE Model generated by Murata Manufacturing Co., Ltd.
* Copyright(C) Murata Manufacturing Co., Ltd.
* Description :1005M(0402)/C0G(-55to125[deg])/1.30e-06[uF]/50[V]
* Murata P/N :GCQ1555C1H1R3WB01
* Property : C = 1.30e-06[uF]
*----------------------------------------------------------------------
* Applicable Conditions:
*   Frequency Range = 100[MHz]-9[GHz]
*   Temperature = 25 degC
*   DC Bias Voltage = 0V
*   Small Signal Operation
*----------------------------------------------------------------------
.SUBCKT GCQ1555C1H1R3WB01 Port1 Port2
C01 Port1 N01 1.30e-12
R01 Port1 N01 1.00e+11
L02 N01 N02 3.52e-10
R03 N02 N03 2.30e-01
C04 N03 Port2 2.22e-10
L04 N03 Port2 1.32e-12
R04 N03 Port2 2.28e-01
.ENDS GCQ1555C1H1R3WB01
*----------------------------------------------------------------------
* SPICE Model generated by Murata Manufacturing Co., Ltd.
* Copyright(C) Murata Manufacturing Co., Ltd.
* Description :1005M(0402)/C0G(-55to125[deg])/1.40e-06[uF]/50[V]
* Murata P/N :GCQ1555C1H1R4BB01
* Property : C = 1.40e-06[uF]
*----------------------------------------------------------------------
* Applicable Conditions:
*   Frequency Range = 100[MHz]-9[GHz]
*   Temperature = 25 degC
*   DC Bias Voltage = 0V
*   Small Signal Operation
*----------------------------------------------------------------------
.SUBCKT GCQ1555C1H1R4BB01 Port1 Port2
C01 Port1 N01 1.40e-12
R01 Port1 N01 1.00e+11
L02 N01 N02 3.39e-10
R03 N02 N03 2.10e-01
C04 N03 Port2 1.29e-10
L04 N03 Port2 2.21e-12
R04 N03 Port2 4.02e-01
.ENDS GCQ1555C1H1R4BB01
*----------------------------------------------------------------------
* SPICE Model generated by Murata Manufacturing Co., Ltd.
* Copyright(C) Murata Manufacturing Co., Ltd.
* Description :1005M(0402)/C0G(-55to125[deg])/1.40e-06[uF]/50[V]
* Murata P/N :GCQ1555C1H1R4CB01
* Property : C = 1.40e-06[uF]
*----------------------------------------------------------------------
* Applicable Conditions:
*   Frequency Range = 100[MHz]-9[GHz]
*   Temperature = 25 degC
*   DC Bias Voltage = 0V
*   Small Signal Operation
*----------------------------------------------------------------------
.SUBCKT GCQ1555C1H1R4CB01 Port1 Port2
C01 Port1 N01 1.40e-12
R01 Port1 N01 1.00e+11
L02 N01 N02 3.39e-10
R03 N02 N03 2.10e-01
C04 N03 Port2 1.29e-10
L04 N03 Port2 2.21e-12
R04 N03 Port2 4.02e-01
.ENDS GCQ1555C1H1R4CB01
*----------------------------------------------------------------------
* SPICE Model generated by Murata Manufacturing Co., Ltd.
* Copyright(C) Murata Manufacturing Co., Ltd.
* Description :1005M(0402)/C0G(-55to125[deg])/1.40e-06[uF]/50[V]
* Murata P/N :GCQ1555C1H1R4WB01
* Property : C = 1.40e-06[uF]
*----------------------------------------------------------------------
* Applicable Conditions:
*   Frequency Range = 100[MHz]-9[GHz]
*   Temperature = 25 degC
*   DC Bias Voltage = 0V
*   Small Signal Operation
*----------------------------------------------------------------------
.SUBCKT GCQ1555C1H1R4WB01 Port1 Port2
C01 Port1 N01 1.40e-12
R01 Port1 N01 1.00e+11
L02 N01 N02 3.39e-10
R03 N02 N03 2.10e-01
C04 N03 Port2 1.29e-10
L04 N03 Port2 2.21e-12
R04 N03 Port2 4.02e-01
.ENDS GCQ1555C1H1R4WB01
*----------------------------------------------------------------------
* SPICE Model generated by Murata Manufacturing Co., Ltd.
* Copyright(C) Murata Manufacturing Co., Ltd.
* Description :1005M(0402)/C0G(-55to125[deg])/1.50e-06[uF]/50[V]
* Murata P/N :GCQ1555C1H1R5BB01
* Property : C = 1.50e-06[uF]