*----------------------------------------------------------------------
* SPICE Model generated by Murata Manufacturing Co., Ltd.
* Copyright(C) Murata Manufacturing Co., Ltd.
* Description :1005M(0402)/C0G(-55to125[deg])/1.00e-05[uF]/50[V]
* Murata P/N :GGM1555C1H100FA16
* Property : C = 1.00e-05[uF]
*----------------------------------------------------------------------
* Applicable Conditions:
*   Frequency Range = 100[MHz]-9[GHz]
*   Temperature = 25 degC
*   DC Bias Voltage = 0V
*   Small Signal Operation
*----------------------------------------------------------------------
.SUBCKT GGM1555C1H100FA16 Port1 Port2
C01 Port1 N01 1.00e-11
R01 Port1 N01 1.00e+11
L02 N01 N02 2.67e-10
R03 N02 N03 2.11e-01
L04 N03 N04 7.40e-12
R04 N03 N04 1.16e-01
C05 N04 N05 4.13e-11
L05 N04 N05 2.14e-11
R05 N04 N05 5.92e+00
C06 N05 Port2 7.91e-12
L06 N05 Port2 3.52e-11
R06 N05 Port2 4.81e+00
.ENDS GGM1555C1H100FA16
*----------------------------------------------------------------------
* SPICE Model generated by Murata Manufacturing Co., Ltd.
* Copyright(C) Murata Manufacturing Co., Ltd.
* Description :1005M(0402)/C0G(-55to125[deg])/1.00e-05[uF]/50[V]
* Murata P/N :GGM1555C1H100GA16
* Property : C = 1.00e-05[uF]
*----------------------------------------------------------------------
* Applicable Conditions:
*   Frequency Range = 100[MHz]-9[GHz]
*   Temperature = 25 degC
*   DC Bias Voltage = 0V
*   Small Signal Operation
*----------------------------------------------------------------------
.SUBCKT GGM1555C1H100GA16 Port1 Port2
C01 Port1 N01 1.00e-11
R01 Port1 N01 1.00e+11
L02 N01 N02 2.67e-10
R03 N02 N03 2.11e-01
L04 N03 N04 7.40e-12
R04 N03 N04 1.16e-01
C05 N04 N05 4.13e-11
L05 N04 N05 2.14e-11
R05 N04 N05 5.92e+00
C06 N05 Port2 7.91e-12
L06 N05 Port2 3.52e-11
R06 N05 Port2 4.81e+00
.ENDS GGM1555C1H100GA16
*----------------------------------------------------------------------
* SPICE Model generated by Murata Manufacturing Co., Ltd.
* Copyright(C) Murata Manufacturing Co., Ltd.
* Description :1005M(0402)/C0G(-55to125[deg])/1.00e-05[uF]/50[V]
* Murata P/N :GGM1555C1H100JA16
* Property : C = 1.00e-05[uF]
*----------------------------------------------------------------------
* Applicable Conditions:
*   Frequency Range = 100[MHz]-9[GHz]
*   Temperature = 25 degC
*   DC Bias Voltage = 0V
*   Small Signal Operation
*----------------------------------------------------------------------
.SUBCKT GGM1555C1H100JA16 Port1 Port2
C01 Port1 N01 1.00e-11
R01 Port1 N01 1.00e+11
L02 N01 N02 2.67e-10
R03 N02 N03 2.11e-01
L04 N03 N04 7.40e-12
R04 N03 N04 1.16e-01
C05 N04 N05 4.13e-11
L05 N04 N05 2.14e-11
R05 N04 N05 5.92e+00
C06 N05 Port2 7.91e-12
L06 N05 Port2 3.52e-11
R06 N05 Port2 4.81e+00
.ENDS GGM1555C1H100JA16
*----------------------------------------------------------------------
* SPICE Model generated by Murata Manufacturing Co., Ltd.
* Copyright(C) Murata Manufacturing Co., Ltd.
* Description :1005M(0402)/C0G(-55to125[deg])/1.00e-05[uF]/50[V]
* Murata P/N :GGM1555C1H100RA16
* Property : C = 1.00e-05[uF]
*----------------------------------------------------------------------
* Applicable Conditions:
*   Frequency Range = 100[MHz]-9[GHz]
*   Temperature = 25 degC
*   DC Bias Voltage = 0V
*   Small Signal Operation
*----------------------------------------------------------------------
.SUBCKT GGM1555C1H100RA16 Port1 Port2
C01 Port1 N01 1.00e-11
R01 Port1 N01 1.00e+11
L02 N01 N02 2.67e-10
R03 N02 N03 2.11e-01
L04 N03 N04 7.40e-12
R04 N03 N04 1.16e-01
C05 N04 N05 4.13e-11
L05 N04 N05 2.14e-11
R05 N04 N05 5.92e+00
C06 N05 Port2 7.91e-12
L06 N05 Port2 3.52e-11
R06 N05 Port2 4.81e+00
.ENDS GGM1555C1H100RA16
*----------------------------------------------------------------------
* SPICE Model generated by Murata Manufacturing Co., Ltd.
* Copyright(C) Murata Manufacturing Co., Ltd.
* Description :1005M(0402)/C0G(-55to125[deg])/1.00e-04[uF]/50[V]
* Murata P/N :GGM1555C1H101JA16
* Property : C = 1.00e-04[uF]
*----------------------------------------------------------------------
* Applicable Conditions:
*   Frequency Range = 100[MHz]-9[GHz]
*   Temperature = 25 degC
*   DC Bias Voltage = 0V
*   Small Signal Operation
*----------------------------------------------------------------------
.SUBCKT GGM1555C1H101JA16 Port1 Port2
C01 Port1 N01 1.00e-10
R01 Port1 N01 1.00e+11
L02 N01 N02 2.65e-10
R03 N02 N03 7.87e-02
L04 N03 N04 1.32e-11
R04 N03 N04 6.83e-02
L05 N04 N05 1.76e-11
R05 N04 N05 2.48e-02
C06 N05 N06 1.08e-09
L06 N05 N06 6.64e-12
R06 N05 N06 4.45e-01
C07 N06 N07 1.58e-10
L07 N06 N07 1.89e-11
R07 N06 N07 1.24e+00
C08 N07 N08 2.89e-11
L08 N07 N08 2.30e-11
R08 N07 N08 1.17e+00
C09 N08 Port2 8.66e-12
L09 N08 Port2 2.98e-11
R09 N08 Port2 1.00e+05
.ENDS GGM1555C1H101JA16
*----------------------------------------------------------------------
* SPICE Model generated by Murata Manufacturing Co., Ltd.
* Copyright(C) Murata Manufacturing Co., Ltd.
* Description :1005M(0402)/C0G(-55to125[deg])/1.20e-05[uF]/50[V]
* Murata P/N :GGM1555C1H120JA16
* Property : C = 1.20e-05[uF]
*----------------------------------------------------------------------
* Applicable Conditions:
*   Frequency Range = 100[MHz]-9[GHz]
*   Temperature = 25 degC
*   DC Bias Voltage = 0V
*   Small Signal Operation
*----------------------------------------------------------------------
.SUBCKT GGM1555C1H120JA16 Port1 Port2
C01 Port1 N01 1.20e-11
R01 Port1 N01 1.00e+11
L02 N01 N02 2.25e-10
R03 N02 N03 1.08e-01
L04 N03 N04 1.16e-11
R04 N03 N04 2.11e-01
L05 N04 N05 4.18e-11
R05 N04 N05 1.18e-01
C06 N05 N06 9.34e-11
L06 N05 N06 1.14e-11
R06 N05 N06 2.46e+00
C07 N06 N07 1.44e-11
L07 N06 N07 2.43e-11
R07 N06 N07 3.13e+00
C08 N07 Port2 4.41e-12
L08 N07 Port2 6.00e-11
R08 N07 Port2 5.00e+03
.ENDS GGM1555C1H120JA16
*----------------------------------------------------------------------
* SPICE Model generated by Murata Manufacturing Co., Ltd.
* Copyright(C) Murata Manufacturing Co., Ltd.
* Description :1005M(0402)/C0G(-55to125[deg])/1.20e-04[uF]/50[V]
* Murata P/N :GGM1555C1H121JA16
* Property : C = 1.20e-04[uF]
*----------------------------------------------------------------------
* Applicable Conditions:
*   Frequency Range = 100[MHz]-9[GHz]
*   Temperature = 25 degC
*   DC Bias Voltage = 0V
*   Small Signal Operation
*----------------------------------------------------------------------
.SUBCKT GGM1555C1H121JA16 Port1 Port2
C01 Port1 N01 1.20e-10
R01 Port1 N01 1.00e+11
L02 N01 N02 1.45e-10
R03 N02 N03 1.20e-01
C04 N03 N04 2.74e-12
L04 N03 N04 1.03e-10
C05 N04 N05 2.68e-12
L05 N04 N05 7.26e-11
R05 N04 N05 4.39e+00
C06 N05 N06 2.15e-10
L06 N05 N06 1.74e-11
R06 N05 N06 1.16e+00
C07 N06 Port2 8.89e-10
L07 N06 Port2 9.86e-12
R07 N06 Port2 5.69e-01
.ENDS GGM1555C1H121JA16
*----------------------------------------------------------------------
* SPICE Model generated by Murata Manufacturing Co., Ltd.
* Copyright(C) Murata Manufacturing Co., Ltd.
* Description :1005M(0402)/C0G(-55to125[deg])/1.50e-05[uF]/50[V]
* Murata P/N :GGM1555C1H150JA16
* Property : C = 1.50e-05[uF]
*----------------------------------------------------------------------
* Applicable Conditions:
*   Frequency Range = 100[MHz]-9[GHz]
*   Temperature = 25 degC
*   DC Bias Voltage = 0V
*   Small Signal Operation
*----------------------------------------------------------------------
.SUBCKT GGM1555C1H150JA16 Port1 Port2
C01 Port1 N01 1.50e-11
R01 Port1 N01 1.00e+11
L02 N01 N02 2.37e-10
R03 N02 N03 1.06e-01
L04 N03 N04 2.01e-11
R04 N03 N04 4.00e-01
L05 N04 N05 3.51e-11
R05 N04 N05 1.05e-01
C06 N05 N06 1.06e-10
L06 N05 N06 1.01e-11
R06 N05 N06 1.61e+00
C07 N06 N07 2.87e-11
L07 N06 N07 1.18e-11
R07 N06 N07 2.13e+00
C08 N07 Port2 2.32e-12
L08 N07 Port2 8.88e-11
R08 N07 Port2 1.00e+05
.ENDS GGM1555C1H150JA16
*----------------------------------------------------------------------
* SPICE Model generated by Murata Manufacturing Co., Ltd.
* Copyright(C) Murata Manufacturing Co., Ltd.
* Description :1005M(0402)/C0G(-55to125[deg])/1.50e-04[uF]/50[V]
* Murata P/N :GGM1555C1H151JA16
* Property : C = 1.50e-04[uF]
*----------------------------------------------------------------------
* Applicable Conditions:
*   Frequency Range = 100[MHz]-9[GHz]
*   Temperature = 25 degC
*   DC Bias Voltage = 0V
*   Small Signal Operation
*----------------------------------------------------------------------
.SUBCKT GGM1555C1H151JA16 Port1 Port2
C01 Port1 N01 1.50e-10
R01 Port1 N01 1.00e+11
L02 N01 N02 1.49e-10
R03 N02 N03 8.71e-02
L04 N03 N04 1.15e-11
R04 N03 N04 4.61e-02
C05 N04 N05 1.47e-09
L05 N04 N05 7.15e-12
R05 N04 N05 2.75e-01
C06 N05 N06 2.51e-10
L06 N05 N06 1.73e-11
R06 N05 N06 8.55e-01
C07 N06 N07 6.99e-12
L07 N06 N07 4.64e-11
R07 N06 N07 1.71e+00
C08 N07 Port2 1.46e-12
L08 N07 Port2 1.51e-10
R08 N07 Port2 1.00e+05
.ENDS GGM1555C1H151JA16
*----------------------------------------------------------------------
* SPICE Model generated by Murata Manufacturing Co., Ltd.
* Copyright(C) Murata Manufacturing Co., Ltd.
* Description :1005M(0402)/C0G(-55to125[deg])/1.80e-05[uF]/50[V]
* Murata P/N :GGM1555C1H180JA16
* Property : C = 1.80e-05[uF]
*----------------------------------------------------------------------
* Applicable Conditions:
*   Frequency Range = 100[MHz]-9[GHz]
*   Temperature = 25 degC
*   DC Bias Voltage = 0V
*   Small Signal Operation
*----------------------------------------------------------------------
.SUBCKT GGM1555C1H180JA16 Port1 Port2
C01 Port1 N01 1.80e-11
R01 Port1 N01 1.00e+11
L02 N01 N02 2.22e-10
R03 N02 N03 1.05e-01
L04 N03 N04 1.46e-11
R04 N03 N04 8.40e-02
L05 N04 N05 1.92e-11
R05 N04 N05 5.10e-02
C06 N05 N06 2.88e-10
L06 N05 N06 4.89e-12
R06 N05 N06 8.71e-01
C07 N06 N07 1.19e-11
L07 N06 N07 3.68e-11
R07 N06 N07 6.64e+00
C08 N07 Port2 3.62e-12
L08 N07 Port2 7.78e-11
R08 N07 Port2 1.00e+05
.ENDS GGM1555C1H180JA16
*----------------------------------------------------------------------
* SPICE Model generated by Murata Manufacturing Co., Ltd.
* Copyright(C) Murata Manufacturing Co., Ltd.
* Description :1005M(0402)/C0G(-55to125[deg])/1.80e-04[uF]/50[V]
* Murata P/N :GGM1555C1H181JA16
* Property : C = 1.80e-04[uF]
*----------------------------------------------------------------------
* Applicable Conditions:
*   Frequency Range = 100[MHz]-9[GHz]
*   Temperature = 25 degC
*   DC Bias Voltage = 0V
*   Small Signal Operation
*----------------------------------------------------------------------
.SUBCKT GGM1555C1H181JA16 Port1 Port2
C01 Port1 N01 1.80e-10
R01 Port1 N01 1.00e+11
L02 N01 N02 1.15e-10
R03 N02 N03 1.00e-01
L04 N03 N04 1.74e-11
R04 N03 N04 5.48e-01
L05 N04 N05 1.17e-10
R05 N04 N05 1.33e+01
C06 N05 N06 3.37e-12
L06 N05 N06 8.36e-11
C07 N06 N07 2.98e-10
L07 N06 N07 2.02e-11
R07 N06 N07 9.99e-01
C08 N07 Port2 1.78e-09
L08 N07 Port2 7.81e-12
R08 N07 Port2 4.30e-01
.ENDS GGM1555C1H181JA16
*----------------------------------------------------------------------
* SPICE Model generated by Murata Manufacturing Co., Ltd.
* Copyright(C) Murata Manufacturing Co., Ltd.
* Description :1005M(0402)/C0G(-55to125[deg])/1.00e-06[uF]/50[V]
* Murata P/N :GGM1555C1H1R0CA16
* Property : C = 1.00e-06[uF]
*----------------------------------------------------------------------
* Applicable Conditions:
*   Frequency Range = 100[MHz]-9[GHz]
*   Temperature = 25 degC
*   DC Bias Voltage = 0V
*   Small Signal Operation
*----------------------------------------------------------------------
.SUBCKT GGM1555C1H1R0CA16 Port1 Port2
C01 Port1 N01 1.00e-12
R01 Port1 N01 1.00e+11
L02 N01 N02 4.09e-10
R03 N02 N03 4.92e-01
L04 N03 N04 3.76e-11
R04 N03 N04 2.70e-01
C05 N04 Port2 4.97e-11
L05 N04 Port2 6.09e-12
R05 N04 Port2 1.15e+00
.ENDS GGM1555C1H1R0CA16
*----------------------------------------------------------------------
* SPICE Model generated by Murata Manufacturing Co., Ltd.
* Copyright(C) Murata Manufacturing Co., Ltd.
* Description :1005M(0402)/C0G(-55to125[deg])/1.20e-06[uF]/50[V]
* Murata P/N :GGM1555C1H1R2CA16
* Property : C = 1.20e-06[uF]
*----------------------------------------------------------------------
* Applicable Conditions:
*   Frequency Range = 100[MHz]-9[GHz]
*   Temperature = 25 degC
*   DC Bias Voltage = 0V
*   Small Signal Operation
*----------------------------------------------------------------------
.SUBCKT GGM1555C1H1R2CA16 Port1 Port2
C01 Port1 N01 1.20e-12
R01 Port1 N01 1.00e+11
L02 N01 N02 3.96e-10
R03 N02 N03 4.11e-01
L04 N03 N04 4.15e-11
R04 N03 N04 2.84e-01
C05 N04 Port2 2.54e-11
L05 N04 Port2 1.16e-11
R05 N04 Port2 2.63e+00
.ENDS GGM1555C1H1R2CA16
*----------------------------------------------------------------------
* SPICE Model generated by Murata Manufacturing Co., Ltd.
* Copyright(C) Murata Manufacturing Co., Ltd.
* Description :1005M(0402)/C0G(-55to125[deg])/1.50e-06[uF]/50[V]
* Murata P/N :GGM1555C1H1R5CA16
* Property : C = 1.50e-06[uF]
*----------------------------------------------------------------------
* Applicable Conditions:
*   Frequency Range = 100[MHz]-9[GHz]
*   Temperature = 25 degC
*   DC Bias Voltage = 0V
*   Small Signal Operation
*----------------------------------------------------------------------
.SUBCKT GGM1555C1H1R5CA16 Port1 Port2
C01 Port1 N01 1.50e-12
R01 Port1 N01 1.00e+11
L02 N01 N02 3.66e-10
R03 N02 N03 3.89e-01
L04 N03 N04 2.46e-11
R04 N03 N04 2.19e-01
C05 N04 Port2 2.72e-11
L05 N04 Port2 1.14e-11
R05 N04 Port2 1.72e+00
.ENDS GGM1555C1H1R5CA16
*----------------------------------------------------------------------
* SPICE Model generated by Murata Manufacturing Co., Ltd.
* Copyright(C) Murata Manufacturing Co., Ltd.
* Description :1005M(0402)/C0G(-55to125[deg])/1.80e-06[uF]/50[V]
* Murata P/N :GGM1555C1H1R8CA16
* Property : C = 1.80e-06[uF]
*----------------------------------------------------------------------
* Applicable Conditions:
*   Frequency Range = 100[MHz]-9[GHz]
*   Temperature = 25 degC
*   DC Bias Voltage = 0V
*   Small Signal Operation
*----------------------------------------------------------------------
.SUBCKT GGM1555C1H1R8CA16 Port1 Port2
C01 Port1 N01 1.80e-12
R01 Port1 N01 1.00e+11
L02 N01 N02 3.44e-10
R03 N02 N03 3.50e-01
L04 N03 N04 1.74e-11
R04 N03 N04 3.76e-01
C05 N04 Port2 9.65e-11
L05 N04 Port2 3.62e-12
R05 N04 Port2 6.05e-01
.ENDS GGM1555C1H1R8CA16
*----------------------------------------------------------------------
* SPICE Model generated by Murata Manufacturing Co., Ltd.
* Copyright(C) Murata Manufacturing Co., Ltd.
* Description :1005M(0402)/C0G(-55to125[deg])/2.20e-05[uF]/50[V]
* Murata P/N :GGM1555C1H220JA16
* Property : C = 2.20e-05[uF]
*----------------------------------------------------------------------
* Applicable Conditions:
*   Frequency Range = 100[MHz]-9[GHz]
*   Temperature = 25 degC
*   DC Bias Voltage = 0V
*   Small Signal Operation
*----------------------------------------------------------------------
.SUBCKT GGM1555C1H220JA16 Port1 Port2
C01 Port1 N01 2.20e-11
R01 Port1 N01 1.00e+11
L02 N01 N02 1.70e-10
R03 N02 N03 1.01e-01
L04 N03 N04 2.01e-11
R04 N03 N04 1.48e-01
L05 N04 N05 2.75e-11
R05 N04 N05 3.67e-02
C06 N05 N06 1.33e-10
L06 N05 N06 1.24e-11
R06 N05 N06 1.89e+00
C07 N06 N07 1.44e-11
L07 N06 N07 3.19e-11
R07 N06 N07 4.74e+00
C08 N07 Port2 1.91e-12
L08 N07 Port2 1.38e-10
R08 N07 Port2 1.00e+05
.ENDS GGM1555C1H220JA16
*----------------------------------------------------------------------
* SPICE Model generated by Murata Manufacturing Co., Ltd.
* Copyright(C) Murata Manufacturing Co., Ltd.
* Description :1005M(0402)/C0G(-55to125[deg])/2.20e-04[uF]/50[V]
* Murata P/N :GGM1555C1H221JA16
* Property : C = 2.20e-04[uF]
*----------------------------------------------------------------------
* Applicable Conditions:
*   Frequency Range = 100[MHz]-9[GHz]
*   Temperature = 25 degC
*   DC Bias Voltage = 0V
*   Small Signal Operation
*----------------------------------------------------------------------
.SUBCKT GGM1555C1H221JA16 Port1 Port2
C01 Port1 N01 2.20e-10
R01 Port1 N01 1.00e+11
L02 N01 N02 2.06e-10
R03 N02 N03 9.50e-02
L04 N03 N04 4.84e-11
R04 N03 N04 1.04e+00
C05 N04 N05 2.62e-09
L05 N04 N05 5.20e-12
R05 N04 N05 1.34e-01
C06 N05 N06 3.41e-10
L06 N05 N06 1.62e-11
R06 N05 N06 5.62e-01
C07 N06 N07 6.81e-11
L07 N06 N07 5.33e-12
R07 N06 N07 1.14e+00
C08 N07 Port2 1.66e-12
L08 N07 Port2 1.30e-10
R08 N07 Port2 8.25e+08
.ENDS GGM1555C1H221JA16
*----------------------------------------------------------------------
* SPICE Model generated by Murata Manufacturing Co., Ltd.
* Copyright(C) Murata Manufacturing Co., Ltd.
* Description :1005M(0402)/C0G(-55to125[deg])/2.70e-05[uF]/50[V]
* Murata P/N :GGM1555C1H270JA16
* Property : C = 2.70e-05[uF]
*----------------------------------------------------------------------
* Applicable Conditions:
*   Frequency Range = 100[MHz]-9[GHz]
*   Temperature = 25 degC
*   DC Bias Voltage = 0V
*   Small Signal Operation
*----------------------------------------------------------------------
.SUBCKT GGM1555C1H270JA16 Port1 Port2
C01 Port1 N01 2.70e-11
R01 Port1 N01 1.00e+11
L02 N01 N02 2.43e-10
R03 N02 N03 9.66e-02
L04 N03 N04 1.06e-11
R04 N03 N04 1.33e-01
L05 N04 N05 3.79e-11
R05 N04 N05 8.53e-02
C06 N05 N06 1.53e-10
L06 N05 N06 1.31e-11
R06 N05 N06 1.48e+00
C07 N06 N07 4.92e-11
L07 N06 N07 1.38e-11
R07 N06 N07 1.54e+00
C08 N07 N08 3.86e-11
L08 N07 N08 9.54e-12
R08 N07 N08 2.03e+00
C09 N08 Port2 3.18e-12
L09 N08 Port2 7.58e-11
R09 N08 Port2 1.00e+05
.ENDS GGM1555C1H270JA16
*----------------------------------------------------------------------
* SPICE Model generated by Murata Manufacturing Co., Ltd.
* Copyright(C) Murata Manufacturing Co., Ltd.
* Description :1005M(0402)/C0G(-55to125[deg])/2.70e-04[uF]/50[V]
* Murata P/N :GGM1555C1H271JA16
* Property : C = 2.70e-04[uF]
*----------------------------------------------------------------------
* Applicable Conditions:
*   Frequency Range = 100[MHz]-9[GHz]
*   Temperature = 25 degC
*   DC Bias Voltage = 0V
*   Small Signal Operation
*----------------------------------------------------------------------
.SUBCKT GGM1555C1H271JA16 Port1 Port2
C01 Port1 N01 2.70e-10
R01 Port1 N01 1.00e+11
L02 N01 N02 1.23e-10
R03 N02 N03 1.00e-01
L04 N03 N04 6.58e-11
R04 N03 N04 2.48e+00
C05 N04 N05 2.13e-12
L05 N04 N05 1.32e-10
C06 N05 N06 6.72e-12
L06 N05 N06 4.19e-11
C07 N06 N07 1.44e-11
L07 N06 N07 2.44e-11
R07 N06 N07 7.56e+00
C08 N07 N08 4.29e-10
L08 N07 N08 1.82e-11
R08 N07 N08 5.62e-01
C09 N08 Port2 3.52e-09
L09 N08 Port2 5.17e-12
R09 N08 Port2 1.31e-01
.ENDS GGM1555C1H271JA16
*----------------------------------------------------------------------
* SPICE Model generated by Murata Manufacturing Co., Ltd.
* Copyright(C) Murata Manufacturing Co., Ltd.
* Description :1005M(0402)/C0G(-55to125[deg])/2.00e-06[uF]/50[V]
* Murata P/N :GGM1555C1H2R0CA16
* Property : C = 2.00e-06[uF]
*----------------------------------------------------------------------
* Applicable Conditions:
*   Frequency Range = 100[MHz]-9[GHz]
*   Temperature = 25 degC
*   DC Bias Voltage = 0V
*   Small Signal Operation
*----------------------------------------------------------------------
.SUBCKT GGM1555C1H2R0CA16 Port1 Port2
C01 Port1 N01 2.00e-12
R01 Port1 N01 1.00e+11
L02 N01 N02 3.35e-10
R03 N02 N03 3.18e-01
L04 N03 N04 1.16e-11
R04 N03 N04 3.33e-01
C05 N04 Port2 2.62e-10
L05 N04 Port2 1.73e-12
R05 N04 Port2 2.37e-01
.ENDS GGM1555C1H2R0CA16
*----------------------------------------------------------------------
* SPICE Model generated by Murata Manufacturing Co., Ltd.
* Copyright(C) Murata Manufacturing Co., Ltd.
* Description :1005M(0402)/C0G(-55to125[deg])/2.20e-06[uF]/50[V]
* Murata P/N :GGM1555C1H2R2CA16
* Property : C = 2.20e-06[uF]
*----------------------------------------------------------------------
* Applicable Conditions:
*   Frequency Range = 100[MHz]-9[GHz]
*   Temperature = 25 degC
*   DC Bias Voltage = 0V
*   Small Signal Operation
*----------------------------------------------------------------------
.SUBCKT GGM1555C1H2R2CA16 Port1 Port2
C01 Port1 N01 2.20e-12
R01 Port1 N01 1.00e+11
L02 N01 N02 3.33e-10
R03 N02 N03 3.16e-01
C04 N03 Port2 2.91e-11
L04 N03 Port2 1.01e-11
R04 N03 Port2 6.66e-01
.ENDS GGM1555C1H2R2CA16
*----------------------------------------------------------------------
* SPICE Model generated by Murata Manufacturing Co., Ltd.
* Copyright(C) Murata Manufacturing Co., Ltd.
* Description :1005M(0402)/C0G(-55to125[deg])/2.70e-06[uF]/50[V]
* Murata P/N :GGM1555C1H2R7CA16
* Property : C = 2.70e-06[uF]
*----------------------------------------------------------------------
* Applicable Conditions:
*   Frequency Range = 100[MHz]-9[GHz]
*   Temperature = 25 degC
*   DC Bias Voltage = 0V
*   Small Signal Operation
*----------------------------------------------------------------------
.SUBCKT GGM1555C1H2R7CA16 Port1 Port2
C01 Port1 N01 2.70e-12
R01 Port1 N01 1.00e+11
L02 N01 N02 3.36e-10
R03 N02 N03 2.85e-01
C04 N03 Port2 4.96e-11
L04 N03 Port2 9.20e-12
R04 N03 Port2 6.20e-01
.ENDS GGM1555C1H2R7CA16
*----------------------------------------------------------------------
* SPICE Model generated by Murata Manufacturing Co., Ltd.
* Copyright(C) Murata Manufacturing Co., Ltd.
* Description :1005M(0402)/C0G(-55to125[deg])/3.30e-05[uF]/50[V]
* Murata P/N :GGM1555C1H330JA16
* Property : C = 3.30e-05[uF]
*----------------------------------------------------------------------
* Applicable Conditions:
*   Frequency Range = 100[MHz]-9[GHz]
*   Temperature = 25 degC
*   DC Bias Voltage = 0V
*   Small Signal Operation
*----------------------------------------------------------------------
.SUBCKT GGM1555C1H330JA16 Port1 Port2
C01 Port1 N01 3.30e-11
R01 Port1 N01 1.00e+11
L02 N01 N02 2.32e-10
R03 N02 N03 8.05e-02
L04 N03 N04 1.24e-11
R04 N03 N04 1.42e-01
L05 N04 N05 3.92e-11
R05 N04 N05 8.58e-02
C06 N05 N06 1.81e-10
L06 N05 N06 1.36e-11
R06 N05 N06 1.18e+00
C07 N06 N07 7.62e-11
L07 N06 N07 1.08e-11
R07 N06 N07 1.34e+00
C08 N07 N08 5.35e-11
L08 N07 N08 7.82e-12
R08 N07 N08 1.22e+00
C09 N08 Port2 2.95e-12
L09 N08 Port2 7.19e-11
R09 N08 Port2 1.00e+05
.ENDS GGM1555C1H330JA16
*----------------------------------------------------------------------
* SPICE Model generated by Murata Manufacturing Co., Ltd.
* Copyright(C) Murata Manufacturing Co., Ltd.
* Description :1005M(0402)/C0G(-55to125[deg])/3.30e-04[uF]/50[V]
* Murata P/N :GGM1555C1H331JA16
* Property : C = 3.30e-04[uF]
*----------------------------------------------------------------------
* Applicable Conditions:
*   Frequency Range = 100[MHz]-9[GHz]
*   Temperature = 25 degC
*   DC Bias Voltage = 0V
*   Small Signal Operation
*----------------------------------------------------------------------
.SUBCKT GGM1555C1H331JA16 Port1 Port2
C01 Port1 N01 3.30e-10
R01 Port1 N01 1.00e+11
L02 N01 N02 1.98e-10
R03 N02 N03 7.51e-02
L04 N03 N04 6.24e-11
R04 N03 N04 9.54e-01
C05 N04 N05 4.13e-09
L05 N04 N05 5.92e-12
R05 N04 N05 1.89e-01
C06 N05 N06 7.02e-10
L06 N05 N06 1.50e-11
R06 N05 N06 4.64e-01
C07 N06 N07 6.03e-11
L07 N06 N07 5.81e-12
R07 N06 N07 7.78e-01
C08 N07 Port2 2.33e-12
L08 N07 Port2 1.04e-10
R08 N07 Port2 1.00e+05
.ENDS GGM1555C1H331JA16
*----------------------------------------------------------------------
* SPICE Model generated by Murata Manufacturing Co., Ltd.
* Copyright(C) Murata Manufacturing Co., Ltd.
* Description :1005M(0402)/C0G(-55to125[deg])/3.90e-05[uF]/50[V]
* Murata P/N :GGM1555C1H390JA16
* Property : C = 3.90e-05[uF]
*----------------------------------------------------------------------
* Applicable Conditions:
*   Frequency Range = 100[MHz]-9[GHz]
*   Temperature = 25 degC
*   DC Bias Voltage = 0V
*   Small Signal Operation
*----------------------------------------------------------------------
.SUBCKT GGM1555C1H390JA16 Port1 Port2
C01 Port1 N01 3.90e-11
R01 Port1 N01 1.00e+11
L02 N01 N02 1.54e-10
R03 N02 N03 7.55e-02
L04 N03 N04 1.06e-11
R04 N03 N04 2.64e-01
L05 N04 N05 3.73e-11
R05 N04 N05 1.03e-01
C06 N05 N06 2.76e-10
L06 N05 N06 1.14e-11
R06 N05 N06 1.40e+00
C07 N06 N07 1.16e-10
L07 N06 N07 9.28e-12
R07 N06 N07 1.30e+00
C08 N07 N08 1.78e-11
L08 N07 N08 2.60e-11
R08 N07 N08 2.90e+00
C09 N08 Port2 1.65e-12
L09 N08 Port2 1.33e-10
R09 N08 Port2 1.00e+05
.ENDS GGM1555C1H390JA16
*----------------------------------------------------------------------
* SPICE Model generated by Murata Manufacturing Co., Ltd.
* Copyright(C) Murata Manufacturing Co., Ltd.
* Description :1005M(0402)/C0G(-55to125[deg])/3.90e-04[uF]/50[V]
* Murata P/N :GGM1555C1H391JA16
* Property : C = 3.90e-04[uF]
*----------------------------------------------------------------------
* Applicable Conditions:
*   Frequency Range = 100[MHz]-9[GHz]
*   Temperature = 25 degC
*   DC Bias Voltage = 0V
*   Small Signal Operation
*----------------------------------------------------------------------
.SUBCKT GGM1555C1H391JA16 Port1 Port2
C01 Port1 N01 3.90e-10
R01 Port1 N01 1.00e+11
L02 N01 N02 1.58e-10
R03 N02 N03 7.50e-02
L04 N03 N04 4.37e-11
R04 N03 N04 9.15e-01
C05 N04 N05 2.35e-12
L05 N04 N05 1.20e-10
C06 N05 N06 1.15e-11
L06 N05 N06 2.97e-11
R06 N05 N06 4.87e+00
C07 N06 N07 9.05e-10
L07 N06 N07 4.83e-12
R07 N06 N07 1.95e-01
C08 N07 N08 6.96e-10
L08 N07 N08 1.97e-11
R08 N07 N08 5.90e-01
C09 N08 Port2 3.22e-09
L09 N08 Port2 9.50e-12
R09 N08 Port2 2.46e-01
.ENDS GGM1555C1H391JA16
*----------------------------------------------------------------------
* SPICE Model generated by Murata Manufacturing Co., Ltd.
* Copyright(C) Murata Manufacturing Co., Ltd.
* Description :1005M(0402)/C0G(-55to125[deg])/3.00e-06[uF]/50[V]
* Murata P/N :GGM1555C1H3R0CA16
* Property : C = 3.00e-06[uF]
*----------------------------------------------------------------------
* Applicable Conditions:
*   Frequency Range = 100[MHz]-9[GHz]
*   Temperature = 25 degC
*   DC Bias Voltage = 0V
*   Small Signal Operation
*----------------------------------------------------------------------
.SUBCKT GGM1555C1H3R0CA16 Port1 Port2
C01 Port1 N01 3.00e-12
R01 Port1 N01 1.00e+11
L02 N01 N02 3.17e-10
R03 N02 N03 2.74e-01
C04 N03 Port2 4.86e-11
L04 N03 Port2 9.17e-12
R04 N03 Port2 5.55e-01
.ENDS GGM1555C1H3R0CA16
*----------------------------------------------------------------------
* SPICE Model generated by Murata Manufacturing Co., Ltd.
* Copyright(C) Murata Manufacturing Co., Ltd.
* Description :1005M(0402)/C0G(-55to125[deg])/3.30e-06[uF]/50[V]
* Murata P/N :GGM1555C1H3R3CA16
* Property : C = 3.30e-06[uF]
*----------------------------------------------------------------------
* Applicable Conditions:
*   Frequency Range = 100[MHz]-9[GHz]
*   Temperature = 25 degC
*   DC Bias Voltage = 0V
*   Small Signal Operation
*----------------------------------------------------------------------
.SUBCKT GGM1555C1H3R3CA16 Port1 Port2
C01 Port1 N01 3.30e-12
R01 Port1 N01 1.00e+11
L02 N01 N02 2.95e-10
R03 N02 N03 2.72e-01
L04 N03 N04 8.89e-12
R04 N03 N04 2.97e-01
C05 N04 Port2 1.22e-11
L05 N04 Port2 2.23e-11
R05 N04 Port2 5.99e+00
.ENDS GGM1555C1H3R3CA16
*----------------------------------------------------------------------
* SPICE Model generated by Murata Manufacturing Co., Ltd.
* Copyright(C) Murata Manufacturing Co., Ltd.
* Description :1005M(0402)/C0G(-55to125[deg])/3.90e-06[uF]/50[V]
* Murata P/N :GGM1555C1H3R9CA16
* Property : C = 3.90e-06[uF]
*----------------------------------------------------------------------
* Applicable Conditions:
*   Frequency Range = 100[MHz]-9[GHz]
*   Temperature = 25 degC
*   DC Bias Voltage = 0V
*   Small Signal Operation
*----------------------------------------------------------------------
.SUBCKT GGM1555C1H3R9CA16 Port1 Port2
C01 Port1 N01 3.90e-12
R01 Port1 N01 1.00e+11
L02 N01 N02 2.60e-10
R03 N02 N03 2.54e-01
L04 N03 N04 6.43e-12
R04 N03 N04 1.26e-01
C05 N04 Port2 5.05e-12
L05 N04 Port2 6.39e-11
R05 N04 Port2 2.68e+01
.ENDS GGM1555C1H3R9CA16
*----------------------------------------------------------------------
* SPICE Model generated by Murata Manufacturing Co., Ltd.
* Copyright(C) Murata Manufacturing Co., Ltd.
* Description :1005M(0402)/C0G(-55to125[deg])/4.70e-05[uF]/50[V]
* Murata P/N :GGM1555C1H470JA16
* Property : C = 4.70e-05[uF]
*----------------------------------------------------------------------
* Applicable Conditions:
*   Frequency Range = 100[MHz]-9[GHz]
*   Temperature = 25 degC
*   DC Bias Voltage = 0V
*   Small Signal Operation
*----------------------------------------------------------------------
.SUBCKT GGM1555C1H470JA16 Port1 Port2
C01 Port1 N01 4.70e-11
R01 Port1 N01 1.00e+11
L02 N01 N02 1.00e-10
R03 N02 N03 7.44e-02
L04 N03 N04 3.86e-11
R04 N03 N04 8.55e-02
L05 N04 N05 2.48e-12
R05 N04 N05 5.61e-02
C06 N05 N06 4.56e-10
L06 N05 N06 7.45e-12
R06 N05 N06 7.46e-01
C07 N06 N07 6.40e-11
L07 N06 N07 2.18e-11
R07 N06 N07 2.38e+00
C08 N07 N08 1.34e-11
L08 N07 N08 3.05e-11
R08 N07 N08 3.04e+00
C09 N08 Port2 1.14e-12
L09 N08 Port2 1.82e-10
R09 N08 Port2 1.00e+05
.ENDS GGM1555C1H470JA16
*----------------------------------------------------------------------
* SPICE Model generated by Murata Manufacturing Co., Ltd.
* Copyright(C) Murata Manufacturing Co., Ltd.
* Description :1005M(0402)/C0G(-55to125[deg])/4.70e-04[uF]/50[V]
* Murata P/N :GGM1555C1H471JA16
* Property : C = 4.70e-04[uF]
*----------------------------------------------------------------------
* Applicable Conditions:
*   Frequency Range = 100[MHz]-9[GHz]
*   Temperature = 25 degC
*   DC Bias Voltage = 0V
*   Small Signal Operation
*----------------------------------------------------------------------
.SUBCKT GGM1555C1H471JA16 Port1 Port2
C01 Port1 N01 4.70e-10
R01 Port1 N01 1.00e+11
L02 N01 N02 1.30e-10
R03 N02 N03 5.29e-02
L04 N03 N04 7.93e-11
R04 N03 N04 6.77e-01
C05 N04 N05 6.72e-09
L05 N04 N05 5.61e-12
R05 N04 N05 2.07e-01
C06 N05 N06 1.85e-09
L06 N05 N06 9.35e-12
R06 N05 N06 4.02e-01
C07 N06 N07 7.69e-11
L07 N06 N07 4.58e-12
R07 N06 N07 1.64e+00
C08 N07 Port2 1.50e-12
L08 N07 Port2 1.26e-10
R08 N07 Port2 1.00e+05
.ENDS GGM1555C1H471JA16
*----------------------------------------------------------------------
* SPICE Model generated by Murata Manufacturing Co., Ltd.
* Copyright(C) Murata Manufacturing Co., Ltd.
* Description :1005M(0402)/C0G(-55to125[deg])/4.00e-06[uF]/50[V]