*----------------------------------------------------------------------
* SPICE Model generated by Murata Manufacturing Co., Ltd.
* Copyright(C) Murata Manufacturing Co., Ltd.
* Description :0402M(01005)/CH(-55to125[deg])/1.00e-05[uF]/16[V]
* Murata P/N :GJM0222C1C100GB01
* Property : C = 1.00e-05[uF]
*----------------------------------------------------------------------
* Applicable Conditions:
*   Frequency Range = 100[MHz]-9[GHz]
*   Temperature = 25 degC
*   DC Bias Voltage = 0V
*   Small Signal Operation
*----------------------------------------------------------------------
.SUBCKT GJM0222C1C100GB01 Port1 Port2
C01 Port1 N01 1.00e-11
R01 Port1 N01 1.00e+10
L02 N01 N02 1.62e-10
R03 N02 N03 1.20e-01
L04 N03 N04 1.26e-12
R04 N03 N04 2.59e-02
C05 N04 Port2 6.53e-11
L05 N04 Port2 5.37e-12
R05 N04 Port2 5.28e-01
.ENDS GJM0222C1C100GB01
*----------------------------------------------------------------------
* SPICE Model generated by Murata Manufacturing Co., Ltd.
* Copyright(C) Murata Manufacturing Co., Ltd.
* Description :0402M(01005)/CH(-55to125[deg])/1.00e-05[uF]/16[V]
* Murata P/N :GJM0222C1C100JB01
* Property : C = 1.00e-05[uF]
*----------------------------------------------------------------------
* Applicable Conditions:
*   Frequency Range = 100[MHz]-9[GHz]
*   Temperature = 25 degC
*   DC Bias Voltage = 0V
*   Small Signal Operation
*----------------------------------------------------------------------
.SUBCKT GJM0222C1C100JB01 Port1 Port2
C01 Port1 N01 1.00e-11
R01 Port1 N01 1.00e+10
L02 N01 N02 1.62e-10
R03 N02 N03 1.20e-01
L04 N03 N04 1.26e-12
R04 N03 N04 2.59e-02
C05 N04 Port2 6.53e-11
L05 N04 Port2 5.37e-12
R05 N04 Port2 5.28e-01
.ENDS GJM0222C1C100JB01
*----------------------------------------------------------------------
* SPICE Model generated by Murata Manufacturing Co., Ltd.
* Copyright(C) Murata Manufacturing Co., Ltd.
* Description :0402M(01005)/CH(-55to125[deg])/1.10e-05[uF]/16[V]
* Murata P/N :GJM0222C1C110GB01
* Property : C = 1.10e-05[uF]
*----------------------------------------------------------------------
* Applicable Conditions:
*   Frequency Range = 100[MHz]-9[GHz]
*   Temperature = 25 degC
*   DC Bias Voltage = 0V
*   Small Signal Operation
*----------------------------------------------------------------------
.SUBCKT GJM0222C1C110GB01 Port1 Port2
C01 Port1 N01 1.10e-11
R01 Port1 N01 1.00e+10
L02 N01 N02 1.65e-10
R03 N02 N03 1.10e-01
L04 N03 N04 9.45e-12
R04 N03 N04 6.92e-01
L05 N04 Port2 3.63e-12
R05 N04 Port2 1.49e-02
.ENDS GJM0222C1C110GB01
*----------------------------------------------------------------------
* SPICE Model generated by Murata Manufacturing Co., Ltd.
* Copyright(C) Murata Manufacturing Co., Ltd.
* Description :0402M(01005)/CH(-55to125[deg])/1.10e-05[uF]/16[V]
* Murata P/N :GJM0222C1C110JB01
* Property : C = 1.10e-05[uF]
*----------------------------------------------------------------------
* Applicable Conditions:
*   Frequency Range = 100[MHz]-9[GHz]
*   Temperature = 25 degC
*   DC Bias Voltage = 0V
*   Small Signal Operation
*----------------------------------------------------------------------
.SUBCKT GJM0222C1C110JB01 Port1 Port2
C01 Port1 N01 1.10e-11
R01 Port1 N01 1.00e+10
L02 N01 N02 1.65e-10
R03 N02 N03 1.10e-01
L04 N03 N04 9.45e-12
R04 N03 N04 6.92e-01
L05 N04 Port2 3.63e-12
R05 N04 Port2 1.49e-02
.ENDS GJM0222C1C110JB01
*----------------------------------------------------------------------
* SPICE Model generated by Murata Manufacturing Co., Ltd.
* Copyright(C) Murata Manufacturing Co., Ltd.
* Description :0402M(01005)/CH(-55to125[deg])/1.20e-05[uF]/16[V]
* Murata P/N :GJM0222C1C120GB01
* Property : C = 1.20e-05[uF]
*----------------------------------------------------------------------
* Applicable Conditions:
*   Frequency Range = 100[MHz]-9[GHz]
*   Temperature = 25 degC
*   DC Bias Voltage = 0V
*   Small Signal Operation
*----------------------------------------------------------------------
.SUBCKT GJM0222C1C120GB01 Port1 Port2
C01 Port1 N01 1.20e-11
R01 Port1 N01 1.00e+10
L02 N01 N02 1.72e-10
R03 N02 N03 1.02e-01
L04 N03 N04 6.95e-12
R04 N03 N04 2.48e-01
L05 N04 Port2 2.58e-12
R05 N04 Port2 1.01e-02
.ENDS GJM0222C1C120GB01
*----------------------------------------------------------------------
* SPICE Model generated by Murata Manufacturing Co., Ltd.
* Copyright(C) Murata Manufacturing Co., Ltd.
* Description :0402M(01005)/CH(-55to125[deg])/1.20e-05[uF]/16[V]
* Murata P/N :GJM0222C1C120JB01
* Property : C = 1.20e-05[uF]
*----------------------------------------------------------------------
* Applicable Conditions:
*   Frequency Range = 100[MHz]-9[GHz]
*   Temperature = 25 degC
*   DC Bias Voltage = 0V
*   Small Signal Operation
*----------------------------------------------------------------------
.SUBCKT GJM0222C1C120JB01 Port1 Port2
C01 Port1 N01 1.20e-11
R01 Port1 N01 1.00e+10
L02 N01 N02 1.72e-10
R03 N02 N03 1.02e-01
L04 N03 N04 6.95e-12
R04 N03 N04 2.48e-01
L05 N04 Port2 2.58e-12
R05 N04 Port2 1.01e-02
.ENDS GJM0222C1C120JB01
*----------------------------------------------------------------------
* SPICE Model generated by Murata Manufacturing Co., Ltd.
* Copyright(C) Murata Manufacturing Co., Ltd.
* Description :0402M(01005)/CH(-55to125[deg])/1.30e-05[uF]/16[V]
* Murata P/N :GJM0222C1C130GB01
* Property : C = 1.30e-05[uF]
*----------------------------------------------------------------------
* Applicable Conditions:
*   Frequency Range = 100[MHz]-9[GHz]
*   Temperature = 25 degC
*   DC Bias Voltage = 0V
*   Small Signal Operation
*----------------------------------------------------------------------
.SUBCKT GJM0222C1C130GB01 Port1 Port2
C01 Port1 N01 1.30e-11
R01 Port1 N01 1.00e+10
L02 N01 N02 1.66e-10
R03 N02 N03 1.01e-01
L04 N03 Port2 1.04e-11
R04 N03 Port2 4.83e-01
.ENDS GJM0222C1C130GB01
*----------------------------------------------------------------------
* SPICE Model generated by Murata Manufacturing Co., Ltd.
* Copyright(C) Murata Manufacturing Co., Ltd.
* Description :0402M(01005)/CH(-55to125[deg])/1.30e-05[uF]/16[V]
* Murata P/N :GJM0222C1C130JB01
* Property : C = 1.30e-05[uF]
*----------------------------------------------------------------------
* Applicable Conditions:
*   Frequency Range = 100[MHz]-9[GHz]
*   Temperature = 25 degC
*   DC Bias Voltage = 0V
*   Small Signal Operation
*----------------------------------------------------------------------
.SUBCKT GJM0222C1C130JB01 Port1 Port2
C01 Port1 N01 1.30e-11
R01 Port1 N01 1.00e+10
L02 N01 N02 1.66e-10
R03 N02 N03 1.01e-01
L04 N03 Port2 1.04e-11
R04 N03 Port2 4.83e-01
.ENDS GJM0222C1C130JB01
*----------------------------------------------------------------------
* SPICE Model generated by Murata Manufacturing Co., Ltd.
* Copyright(C) Murata Manufacturing Co., Ltd.
* Description :0402M(01005)/CH(-55to125[deg])/1.50e-05[uF]/16[V]
* Murata P/N :GJM0222C1C150GB01
* Property : C = 1.50e-05[uF]
*----------------------------------------------------------------------
* Applicable Conditions:
*   Frequency Range = 100[MHz]-9[GHz]
*   Temperature = 25 degC
*   DC Bias Voltage = 0V
*   Small Signal Operation
*----------------------------------------------------------------------
.SUBCKT GJM0222C1C150GB01 Port1 Port2
C01 Port1 N01 1.50e-11
R01 Port1 N01 1.00e+10
L02 N01 N02 1.58e-10
R03 N02 N03 1.00e-01
L04 N03 N04 6.93e-12
R04 N03 N04 1.46e-01
C05 N04 Port2 2.08e-10
L05 N04 Port2 1.62e-12
R05 N04 Port2 6.48e-01
.ENDS GJM0222C1C150GB01
*----------------------------------------------------------------------
* SPICE Model generated by Murata Manufacturing Co., Ltd.
* Copyright(C) Murata Manufacturing Co., Ltd.
* Description :0402M(01005)/CH(-55to125[deg])/1.50e-05[uF]/16[V]
* Murata P/N :GJM0222C1C150JB01
* Property : C = 1.50e-05[uF]
*----------------------------------------------------------------------
* Applicable Conditions:
*   Frequency Range = 100[MHz]-9[GHz]
*   Temperature = 25 degC
*   DC Bias Voltage = 0V
*   Small Signal Operation
*----------------------------------------------------------------------
.SUBCKT GJM0222C1C150JB01 Port1 Port2
C01 Port1 N01 1.50e-11
R01 Port1 N01 1.00e+10
L02 N01 N02 1.58e-10
R03 N02 N03 1.00e-01
L04 N03 N04 6.93e-12
R04 N03 N04 1.46e-01
C05 N04 Port2 2.08e-10
L05 N04 Port2 1.62e-12
R05 N04 Port2 6.48e-01
.ENDS GJM0222C1C150JB01
*----------------------------------------------------------------------
* SPICE Model generated by Murata Manufacturing Co., Ltd.
* Copyright(C) Murata Manufacturing Co., Ltd.
* Description :0402M(01005)/CH(-55to125[deg])/1.60e-05[uF]/16[V]
* Murata P/N :GJM0222C1C160GB01
* Property : C = 1.60e-05[uF]
*----------------------------------------------------------------------
* Applicable Conditions:
*   Frequency Range = 100[MHz]-9[GHz]
*   Temperature = 25 degC
*   DC Bias Voltage = 0V
*   Small Signal Operation
*----------------------------------------------------------------------
.SUBCKT GJM0222C1C160GB01 Port1 Port2
C01 Port1 N01 1.60e-11
R01 Port1 N01 1.00e+10
L02 N01 N02 1.62e-10
R03 N02 N03 9.64e-02
L04 N03 N04 6.68e-12
R04 N03 N04 2.98e-01
C05 N04 Port2 5.25e-10
L05 N04 Port2 7.98e-13
R05 N04 Port2 6.41e-01
.ENDS GJM0222C1C160GB01
*----------------------------------------------------------------------
* SPICE Model generated by Murata Manufacturing Co., Ltd.
* Copyright(C) Murata Manufacturing Co., Ltd.
* Description :0402M(01005)/CH(-55to125[deg])/1.60e-05[uF]/16[V]
* Murata P/N :GJM0222C1C160JB01
* Property : C = 1.60e-05[uF]
*----------------------------------------------------------------------
* Applicable Conditions:
*   Frequency Range = 100[MHz]-9[GHz]
*   Temperature = 25 degC
*   DC Bias Voltage = 0V
*   Small Signal Operation
*----------------------------------------------------------------------
.SUBCKT GJM0222C1C160JB01 Port1 Port2
C01 Port1 N01 1.60e-11
R01 Port1 N01 1.00e+10
L02 N01 N02 1.62e-10
R03 N02 N03 9.64e-02
L04 N03 N04 6.68e-12
R04 N03 N04 2.98e-01
C05 N04 Port2 5.25e-10
L05 N04 Port2 7.98e-13
R05 N04 Port2 6.41e-01
.ENDS GJM0222C1C160JB01
*----------------------------------------------------------------------
* SPICE Model generated by Murata Manufacturing Co., Ltd.
* Copyright(C) Murata Manufacturing Co., Ltd.
* Description :0402M(01005)/CH(-55to125[deg])/1.80e-05[uF]/16[V]
* Murata P/N :GJM0222C1C180GB01
* Property : C = 1.80e-05[uF]
*----------------------------------------------------------------------
* Applicable Conditions:
*   Frequency Range = 100[MHz]-9[GHz]
*   Temperature = 25 degC
*   DC Bias Voltage = 0V
*   Small Signal Operation
*----------------------------------------------------------------------
.SUBCKT GJM0222C1C180GB01 Port1 Port2
C01 Port1 N01 1.80e-11
R01 Port1 N01 1.00e+10
L02 N01 N02 1.58e-10
R03 N02 N03 9.00e-02
L04 N03 N04 8.12e-12
R04 N03 N04 2.41e-01
L05 N04 N05 6.98e-13
R05 N04 N05 1.15e-02
C06 N05 Port2 1.88e-10
L06 N05 Port2 2.41e-12
R06 N05 Port2 1.54e+00
.ENDS GJM0222C1C180GB01
*----------------------------------------------------------------------
* SPICE Model generated by Murata Manufacturing Co., Ltd.
* Copyright(C) Murata Manufacturing Co., Ltd.
* Description :0402M(01005)/CH(-55to125[deg])/1.80e-05[uF]/16[V]
* Murata P/N :GJM0222C1C180JB01
* Property : C = 1.80e-05[uF]
*----------------------------------------------------------------------
* Applicable Conditions:
*   Frequency Range = 100[MHz]-9[GHz]
*   Temperature = 25 degC
*   DC Bias Voltage = 0V
*   Small Signal Operation
*----------------------------------------------------------------------
.SUBCKT GJM0222C1C180JB01 Port1 Port2
C01 Port1 N01 1.80e-11
R01 Port1 N01 1.00e+10
L02 N01 N02 1.58e-10
R03 N02 N03 9.00e-02
L04 N03 N04 8.12e-12
R04 N03 N04 2.41e-01
L05 N04 N05 6.98e-13
R05 N04 N05 1.15e-02
C06 N05 Port2 1.88e-10
L06 N05 Port2 2.41e-12
R06 N05 Port2 1.54e+00
.ENDS GJM0222C1C180JB01
*----------------------------------------------------------------------
* SPICE Model generated by Murata Manufacturing Co., Ltd.
* Copyright(C) Murata Manufacturing Co., Ltd.
* Description :0402M(01005)/CH(-55to125[deg])/2.00e-05[uF]/16[V]
* Murata P/N :GJM0222C1C200GB01
* Property : C = 2.00e-05[uF]
*----------------------------------------------------------------------
* Applicable Conditions:
*   Frequency Range = 100[MHz]-9[GHz]
*   Temperature = 25 degC
*   DC Bias Voltage = 0V
*   Small Signal Operation
*----------------------------------------------------------------------
.SUBCKT GJM0222C1C200GB01 Port1 Port2
C01 Port1 N01 2.00e-11
R01 Port1 N01 1.00e+10
L02 N01 N02 1.62e-10
R03 N02 N03 8.00e-02
L04 N03 N04 2.54e-12
R04 N03 N04 6.71e-02
L05 N04 N05 6.19e-12
R05 N04 N05 6.29e-02
C06 N05 Port2 1.61e-10
L06 N05 Port2 3.26e-12
R06 N05 Port2 1.66e+00
.ENDS GJM0222C1C200GB01
*----------------------------------------------------------------------
* SPICE Model generated by Murata Manufacturing Co., Ltd.
* Copyright(C) Murata Manufacturing Co., Ltd.
* Description :0402M(01005)/CH(-55to125[deg])/2.00e-05[uF]/16[V]
* Murata P/N :GJM0222C1C200JB01
* Property : C = 2.00e-05[uF]
*----------------------------------------------------------------------
* Applicable Conditions:
*   Frequency Range = 100[MHz]-9[GHz]
*   Temperature = 25 degC
*   DC Bias Voltage = 0V
*   Small Signal Operation
*----------------------------------------------------------------------
.SUBCKT GJM0222C1C200JB01 Port1 Port2
C01 Port1 N01 2.00e-11
R01 Port1 N01 1.00e+10
L02 N01 N02 1.62e-10
R03 N02 N03 8.00e-02
L04 N03 N04 2.54e-12
R04 N03 N04 6.71e-02
L05 N04 N05 6.19e-12
R05 N04 N05 6.29e-02
C06 N05 Port2 1.61e-10
L06 N05 Port2 3.26e-12
R06 N05 Port2 1.66e+00
.ENDS GJM0222C1C200JB01
*----------------------------------------------------------------------
* SPICE Model generated by Murata Manufacturing Co., Ltd.
* Copyright(C) Murata Manufacturing Co., Ltd.
* Description :0402M(01005)/CH(-55to125[deg])/2.20e-05[uF]/16[V]
* Murata P/N :GJM0222C1C220GB01
* Property : C = 2.20e-05[uF]
*----------------------------------------------------------------------
* Applicable Conditions:
*   Frequency Range = 100[MHz]-9[GHz]
*   Temperature = 25 degC
*   DC Bias Voltage = 0V
*   Small Signal Operation
*----------------------------------------------------------------------
.SUBCKT GJM0222C1C220GB01 Port1 Port2
C01 Port1 N01 2.20e-11
R01 Port1 N01 1.00e+10
L02 N01 N02 1.57e-10
R03 N02 N03 8.00e-02
L04 N03 N04 7.84e-12
R04 N03 N04 1.23e-01
C05 N04 Port2 3.25e-10
L05 N04 Port2 1.71e-12
R05 N04 Port2 6.34e-01
.ENDS GJM0222C1C220GB01
*----------------------------------------------------------------------
* SPICE Model generated by Murata Manufacturing Co., Ltd.
* Copyright(C) Murata Manufacturing Co., Ltd.
* Description :0402M(01005)/CH(-55to125[deg])/2.20e-05[uF]/16[V]
* Murata P/N :GJM0222C1C220JB01
* Property : C = 2.20e-05[uF]
*----------------------------------------------------------------------
* Applicable Conditions:
*   Frequency Range = 100[MHz]-9[GHz]
*   Temperature = 25 degC
*   DC Bias Voltage = 0V
*   Small Signal Operation
*----------------------------------------------------------------------
.SUBCKT GJM0222C1C220JB01 Port1 Port2
C01 Port1 N01 2.20e-11
R01 Port1 N01 1.00e+10
L02 N01 N02 1.57e-10
R03 N02 N03 8.00e-02
L04 N03 N04 7.84e-12
R04 N03 N04 1.23e-01
C05 N04 Port2 3.25e-10
L05 N04 Port2 1.71e-12
R05 N04 Port2 6.34e-01
.ENDS GJM0222C1C220JB01
*----------------------------------------------------------------------
* SPICE Model generated by Murata Manufacturing Co., Ltd.
* Copyright(C) Murata Manufacturing Co., Ltd.
* Description :0402M(01005)/CH(-55to125[deg])/4.00e-06[uF]/16[V]
* Murata P/N :GJM0222C1C4R0BB01
* Property : C = 4.00e-06[uF]
*----------------------------------------------------------------------
* Applicable Conditions:
*   Frequency Range = 100[MHz]-9[GHz]
*   Temperature = 25 degC
*   DC Bias Voltage = 0V
*   Small Signal Operation
*----------------------------------------------------------------------
.SUBCKT GJM0222C1C4R0BB01 Port1 Port2
C01 Port1 N01 4.00e-12
R01 Port1 N01 1.00e+10
L02 N01 N02 1.46e-10
R03 N02 N03 1.80e-01
L04 N03 N04 2.11e-12
R04 N03 N04 7.63e-02
C05 N04 N05 1.39e-11
L05 N04 N05 1.79e-11
R05 N04 N05 1.00e+05
C06 N05 Port2 1.58e-11
L06 N05 Port2 2.35e-12
R06 N05 Port2 4.99e-01
.ENDS GJM0222C1C4R0BB01
*----------------------------------------------------------------------
* SPICE Model generated by Murata Manufacturing Co., Ltd.
* Copyright(C) Murata Manufacturing Co., Ltd.
* Description :0402M(01005)/CH(-55to125[deg])/4.00e-06[uF]/16[V]
* Murata P/N :GJM0222C1C4R0CB01
* Property : C = 4.00e-06[uF]
*----------------------------------------------------------------------
* Applicable Conditions:
*   Frequency Range = 100[MHz]-9[GHz]
*   Temperature = 25 degC
*   DC Bias Voltage = 0V
*   Small Signal Operation
*----------------------------------------------------------------------
.SUBCKT GJM0222C1C4R0CB01 Port1 Port2
C01 Port1 N01 4.00e-12
R01 Port1 N01 1.00e+10
L02 N01 N02 1.46e-10
R03 N02 N03 1.80e-01
L04 N03 N04 2.11e-12
R04 N03 N04 7.63e-02
C05 N04 N05 1.39e-11
L05 N04 N05 1.79e-11
R05 N04 N05 1.00e+05
C06 N05 Port2 1.58e-11
L06 N05 Port2 2.35e-12
R06 N05 Port2 4.99e-01
.ENDS GJM0222C1C4R0CB01
*----------------------------------------------------------------------
* SPICE Model generated by Murata Manufacturing Co., Ltd.
* Copyright(C) Murata Manufacturing Co., Ltd.
* Description :0402M(01005)/CH(-55to125[deg])/4.00e-06[uF]/16[V]
* Murata P/N :GJM0222C1C4R0WB01
* Property : C = 4.00e-06[uF]
*----------------------------------------------------------------------
* Applicable Conditions:
*   Frequency Range = 100[MHz]-9[GHz]
*   Temperature = 25 degC
*   DC Bias Voltage = 0V
*   Small Signal Operation
*----------------------------------------------------------------------
.SUBCKT GJM0222C1C4R0WB01 Port1 Port2
C01 Port1 N01 4.00e-12
R01 Port1 N01 1.00e+10
L02 N01 N02 1.46e-10
R03 N02 N03 1.80e-01
L04 N03 N04 2.11e-12
R04 N03 N04 7.63e-02
C05 N04 N05 1.39e-11
L05 N04 N05 1.79e-11
R05 N04 N05 1.00e+05
C06 N05 Port2 1.58e-11
L06 N05 Port2 2.35e-12
R06 N05 Port2 4.99e-01
.ENDS GJM0222C1C4R0WB01
*----------------------------------------------------------------------
* SPICE Model generated by Murata Manufacturing Co., Ltd.
* Copyright(C) Murata Manufacturing Co., Ltd.
* Description :0402M(01005)/CH(-55to125[deg])/4.10e-06[uF]/16[V]
* Murata P/N :GJM0222C1C4R1BB01
* Property : C = 4.10e-06[uF]
*----------------------------------------------------------------------
* Applicable Conditions:
*   Frequency Range = 100[MHz]-9[GHz]
*   Temperature = 25 degC
*   DC Bias Voltage = 0V
*   Small Signal Operation
*----------------------------------------------------------------------
.SUBCKT GJM0222C1C4R1BB01 Port1 Port2
C01 Port1 N01 4.10e-12
R01 Port1 N01 1.00e+10
L02 N01 N02 1.61e-10
R03 N02 N03 1.60e-01
L04 N03 Port2 9.83e-12
R04 N03 Port2 1.66e+00
.ENDS GJM0222C1C4R1BB01
*----------------------------------------------------------------------
* SPICE Model generated by Murata Manufacturing Co., Ltd.
* Copyright(C) Murata Manufacturing Co., Ltd.
* Description :0402M(01005)/CH(-55to125[deg])/4.10e-06[uF]/16[V]
* Murata P/N :GJM0222C1C4R1CB01
* Property : C = 4.10e-06[uF]
*----------------------------------------------------------------------
* Applicable Conditions:
*   Frequency Range = 100[MHz]-9[GHz]
*   Temperature = 25 degC
*   DC Bias Voltage = 0V
*   Small Signal Operation
*----------------------------------------------------------------------
.SUBCKT GJM0222C1C4R1CB01 Port1 Port2
C01 Port1 N01 4.10e-12
R01 Port1 N01 1.00e+10
L02 N01 N02 1.61e-10
R03 N02 N03 1.60e-01
L04 N03 Port2 9.83e-12
R04 N03 Port2 1.66e+00
.ENDS GJM0222C1C4R1CB01
*----------------------------------------------------------------------
* SPICE Model generated by Murata Manufacturing Co., Ltd.
* Copyright(C) Murata Manufacturing Co., Ltd.
* Description :0402M(01005)/CH(-55to125[deg])/4.10e-06[uF]/16[V]
* Murata P/N :GJM0222C1C4R1WB01
* Property : C = 4.10e-06[uF]
*----------------------------------------------------------------------
* Applicable Conditions:
*   Frequency Range = 100[MHz]-9[GHz]
*   Temperature = 25 degC
*   DC Bias Voltage = 0V
*   Small Signal Operation
*----------------------------------------------------------------------
.SUBCKT GJM0222C1C4R1WB01 Port1 Port2
C01 Port1 N01 4.10e-12
R01 Port1 N01 1.00e+10
L02 N01 N02 1.61e-10
R03 N02 N03 1.60e-01
L04 N03 Port2 9.83e-12
R04 N03 Port2 1.66e+00
.ENDS GJM0222C1C4R1WB01
*----------------------------------------------------------------------
* SPICE Model generated by Murata Manufacturing Co., Ltd.
* Copyright(C) Murata Manufacturing Co., Ltd.
* Description :0402M(01005)/CH(-55to125[deg])/4.20e-06[uF]/16[V]
* Murata P/N :GJM0222C1C4R2BB01
* Property : C = 4.20e-06[uF]
*----------------------------------------------------------------------
* Applicable Conditions:
*   Frequency Range = 100[MHz]-9[GHz]
*   Temperature = 25 degC
*   DC Bias Voltage = 0V
*   Small Signal Operation
*----------------------------------------------------------------------
.SUBCKT GJM0222C1C4R2BB01 Port1 Port2
C01 Port1 N01 4.20e-12
R01 Port1 N01 1.00e+10
L02 N01 N02 1.61e-10
R03 N02 N03 1.60e-01
L04 N03 Port2 9.83e-12
R04 N03 Port2 1.66e+00
.ENDS GJM0222C1C4R2BB01
*----------------------------------------------------------------------
* SPICE Model generated by Murata Manufacturing Co., Ltd.
* Copyright(C) Murata Manufacturing Co., Ltd.
* Description :0402M(01005)/CH(-55to125[deg])/4.20e-06[uF]/16[V]
* Murata P/N :GJM0222C1C4R2CB01
* Property : C = 4.20e-06[uF]
*----------------------------------------------------------------------
* Applicable Conditions:
*   Frequency Range = 100[MHz]-9[GHz]
*   Temperature = 25 degC
*   DC Bias Voltage = 0V
*   Small Signal Operation
*----------------------------------------------------------------------
.SUBCKT GJM0222C1C4R2CB01 Port1 Port2
C01 Port1 N01 4.20e-12
R01 Port1 N01 1.00e+10
L02 N01 N02 1.61e-10
R03 N02 N03 1.60e-01
L04 N03 Port2 9.83e-12
R04 N03 Port2 1.66e+00
.ENDS GJM0222C1C4R2CB01
*----------------------------------------------------------------------
* SPICE Model generated by Murata Manufacturing Co., Ltd.
* Copyright(C) Murata Manufacturing Co., Ltd.
* Description :0402M(01005)/CH(-55to125[deg])/4.20e-06[uF]/16[V]
* Murata P/N :GJM0222C1C4R2WB01
* Property : C = 4.20e-06[uF]
*----------------------------------------------------------------------
* Applicable Conditions:
*   Frequency Range = 100[MHz]-9[GHz]
*   Temperature = 25 degC
*   DC Bias Voltage = 0V
*   Small Signal Operation
*----------------------------------------------------------------------
.SUBCKT GJM0222C1C4R2WB01 Port1 Port2
C01 Port1 N01 4.20e-12
R01 Port1 N01 1.00e+10
L02 N01 N02 1.61e-10
R03 N02 N03 1.60e-01
L04 N03 Port2 9.83e-12
R04 N03 Port2 1.66e+00
.ENDS GJM0222C1C4R2WB01
*----------------------------------------------------------------------
* SPICE Model generated by Murata Manufacturing Co., Ltd.
* Copyright(C) Murata Manufacturing Co., Ltd.
* Description :0402M(01005)/CH(-55to125[deg])/4.30e-06[uF]/16[V]
* Murata P/N :GJM0222C1C4R3BB01
* Property : C = 4.30e-06[uF]
*----------------------------------------------------------------------
* Applicable Conditions:
*   Frequency Range = 100[MHz]-9[GHz]
*   Temperature = 25 degC
*   DC Bias Voltage = 0V
*   Small Signal Operation
*----------------------------------------------------------------------
.SUBCKT GJM0222C1C4R3BB01 Port1 Port2
C01 Port1 N01 4.30e-12
R01 Port1 N01 1.00e+10
L02 N01 N02 1.61e-10
R03 N02 N03 1.60e-01
L04 N03 Port2 9.83e-12
R04 N03 Port2 1.66e+00
.ENDS GJM0222C1C4R3BB01
*----------------------------------------------------------------------
* SPICE Model generated by Murata Manufacturing Co., Ltd.
* Copyright(C) Murata Manufacturing Co., Ltd.
* Description :0402M(01005)/CH(-55to125[deg])/4.30e-06[uF]/16[V]
* Murata P/N :GJM0222C1C4R3CB01
* Property : C = 4.30e-06[uF]
*----------------------------------------------------------------------
* Applicable Conditions:
*   Frequency Range = 100[MHz]-9[GHz]
*   Temperature = 25 degC
*   DC Bias Voltage = 0V
*   Small Signal Operation
*----------------------------------------------------------------------
.SUBCKT GJM0222C1C4R3CB01 Port1 Port2
C01 Port1 N01 4.30e-12
R01 Port1 N01 1.00e+10
L02 N01 N02 1.61e-10
R03 N02 N03 1.60e-01
L04 N03 Port2 9.83e-12
R04 N03 Port2 1.66e+00
.ENDS GJM0222C1C4R3CB01
*----------------------------------------------------------------------
* SPICE Model generated by Murata Manufacturing Co., Ltd.
* Copyright(C) Murata Manufacturing Co., Ltd.
* Description :0402M(01005)/CH(-55to125[deg])/4.30e-06[uF]/16[V]
* Murata P/N :GJM0222C1C4R3WB01
* Property : C = 4.30e-06[uF]
*----------------------------------------------------------------------
* Applicable Conditions:
*   Frequency Range = 100[MHz]-9[GHz]
*   Temperature = 25 degC
*   DC Bias Voltage = 0V
*   Small Signal Operation
*----------------------------------------------------------------------
.SUBCKT GJM0222C1C4R3WB01 Port1 Port2
C01 Port1 N01 4.30e-12
R01 Port1 N01 1.00e+10
L02 N01 N02 1.61e-10
R03 N02 N03 1.60e-01
L04 N03 Port2 9.83e-12
R04 N03 Port2 1.66e+00
.ENDS GJM0222C1C4R3WB01
*----------------------------------------------------------------------
* SPICE Model generated by Murata Manufacturing Co., Ltd.
* Copyright(C) Murata Manufacturing Co., Ltd.
* Description :0402M(01005)/CH(-55to125[deg])/4.40e-06[uF]/16[V]
* Murata P/N :GJM0222C1C4R4BB01
* Property : C = 4.40e-06[uF]
*----------------------------------------------------------------------
* Applicable Conditions:
*   Frequency Range = 100[MHz]-9[GHz]
*   Temperature = 25 degC
*   DC Bias Voltage = 0V
*   Small Signal Operation
*----------------------------------------------------------------------
.SUBCKT GJM0222C1C4R4BB01 Port1 Port2
C01 Port1 N01 4.40e-12
R01 Port1 N01 1.00e+10
L02 N01 N02 1.69e-10
R03 N02 N03 1.56e-01
L04 N03 Port2 3.56e-12
R04 N03 Port2 1.44e-01
.ENDS GJM0222C1C4R4BB01
*----------------------------------------------------------------------
* SPICE Model generated by Murata Manufacturing Co., Ltd.
* Copyright(C) Murata Manufacturing Co., Ltd.
* Description :0402M(01005)/CH(-55to125[deg])/4.40e-06[uF]/16[V]
* Murata P/N :GJM0222C1C4R4CB01
* Property : C = 4.40e-06[uF]
*----------------------------------------------------------------------
* Applicable Conditions:
*   Frequency Range = 100[MHz]-9[GHz]
*   Temperature = 25 degC
*   DC Bias Voltage = 0V
*   Small Signal Operation
*----------------------------------------------------------------------
.SUBCKT GJM0222C1C4R4CB01 Port1 Port2
C01 Port1 N01 4.40e-12
R01 Port1 N01 1.00e+10
L02 N01 N02 1.69e-10
R03 N02 N03 1.56e-01
L04 N03 Port2 3.56e-12
R04 N03 Port2 1.44e-01
.ENDS GJM0222C1C4R4CB01
*----------------------------------------------------------------------
* SPICE Model generated by Murata Manufacturing Co., Ltd.
* Copyright(C) Murata Manufacturing Co., Ltd.
* Description :0402M(01005)/CH(-55to125[deg])/4.40e-06[uF]/16[V]
* Murata P/N :GJM0222C1C4R4WB01
* Property : C = 4.40e-06[uF]
*----------------------------------------------------------------------
* Applicable Conditions:
*   Frequency Range = 100[MHz]-9[GHz]
*   Temperature = 25 degC
*   DC Bias Voltage = 0V
*   Small Signal Operation
*----------------------------------------------------------------------
.SUBCKT GJM0222C1C4R4WB01 Port1 Port2
C01 Port1 N01 4.40e-12
R01 Port1 N01 1.00e+10
L02 N01 N02 1.69e-10
R03 N02 N03 1.56e-01
L04 N03 Port2 3.56e-12
R04 N03 Port2 1.44e-01
.ENDS GJM0222C1C4R4WB01
*----------------------------------------------------------------------
* SPICE Model generated by Murata Manufacturing Co., Ltd.
* Copyright(C) Murata Manufacturing Co., Ltd.
* Description :0402M(01005)/CH(-55to125[deg])/4.50e-06[uF]/16[V]
* Murata P/N :GJM0222C1C4R5BB01
* Property : C = 4.50e-06[uF]
*----------------------------------------------------------------------
* Applicable Conditions:
*   Frequency Range = 100[MHz]-9[GHz]
*   Temperature = 25 degC
*   DC Bias Voltage = 0V
*   Small Signal Operation
*----------------------------------------------------------------------
.SUBCKT GJM0222C1C4R5BB01 Port1 Port2
C01 Port1 N01 4.50e-12
R01 Port1 N01 1.00e+10
L02 N01 N02 1.69e-10
R03 N02 N03 1.56e-01
L04 N03 Port2 3.56e-12
R04 N03 Port2 1.44e-01
.ENDS GJM0222C1C4R5BB01
*----------------------------------------------------------------------
* SPICE Model generated by Murata Manufacturing Co., Ltd.
* Copyright(C) Murata Manufacturing Co., Ltd.
* Description :0402M(01005)/CH(-55to125[deg])/4.50e-06[uF]/16[V]
* Murata P/N :GJM0222C1C4R5CB01
* Property : C = 4.50e-06[uF]
*----------------------------------------------------------------------
* Applicable Conditions:
*   Frequency Range = 100[MHz]-9[GHz]
*   Temperature = 25 degC
*   DC Bias Voltage = 0V
*   Small Signal Operation
*----------------------------------------------------------------------
.SUBCKT GJM0222C1C4R5CB01 Port1 Port2
C01 Port1 N01 4.50e-12
R01 Port1 N01 1.00e+10
L02 N01 N02 1.69e-10
R03 N02 N03 1.56e-01
L04 N03 Port2 3.56e-12
R04 N03 Port2 1.44e-01
.ENDS GJM0222C1C4R5CB01
*----------------------------------------------------------------------
* SPICE Model generated by Murata Manufacturing Co., Ltd.
* Copyright(C) Murata Manufacturing Co., Ltd.
* Description :0402M(01005)/CH(-55to125[deg])/4.50e-06[uF]/16[V]
* Murata P/N :GJM0222C1C4R5WB01
* Property : C = 4.50e-06[uF]
*----------------------------------------------------------------------
* Applicable Conditions:
*   Frequency Range = 100[MHz]-9[GHz]
*   Temperature = 25 degC
*   DC Bias Voltage = 0V
*   Small Signal Operation
*----------------------------------------------------------------------
.SUBCKT GJM0222C1C4R5WB01 Port1 Port2
C01 Port1 N01 4.50e-12
R01 Port1 N01 1.00e+10
L02 N01 N02 1.69e-10
R03 N02 N03 1.56e-01
L04 N03 Port2 3.56e-12
R04 N03 Port2 1.44e-01
.ENDS GJM0222C1C4R5WB01
*----------------------------------------------------------------------
* SPICE Model generated by Murata Manufacturing Co., Ltd.
* Copyright(C) Murata Manufacturing Co., Ltd.
* Description :0402M(01005)/CH(-55to125[deg])/4.60e-06[uF]/16[V]
* Murata P/N :GJM0222C1C4R6BB01