*----------------------------------------------------------------------
* SPICE Model generated by Murata Manufacturing Co., Ltd.
* Copyright(C) Murata Manufacturing Co., Ltd.
* Description :1005M(0402)/C0G(-55to125[deg])/3.60e-05[uF]/100[V]
* Murata P/N :GQM1555C2A360GB01
* Property : C = 3.60e-05[uF]
*----------------------------------------------------------------------
* Applicable Conditions:
*   Frequency Range = 100[MHz]-9[GHz]
*   Temperature = 25 degC
*   DC Bias Voltage = 0V
*   Small Signal Operation
*----------------------------------------------------------------------
.SUBCKT GQM1555C2A360GB01 Port1 Port2
C01 Port1 N01 3.60e-11
R01 Port1 N01 1.00e+10
L02 N01 N02 2.14e-10
R03 N02 N03 7.33e-02
C04 N03 N04 1.19e-10
L04 N03 N04 1.80e-11
R04 N03 N04 7.40e+00
C05 N04 N05 4.14e-11
L05 N04 N05 2.11e-11
R05 N04 N05 9.76e+00
C06 N05 Port2 3.73e-11
L06 N05 Port2 1.18e-11
R06 N05 Port2 6.85e+00
.ENDS GQM1555C2A360GB01
*----------------------------------------------------------------------
* SPICE Model generated by Murata Manufacturing Co., Ltd.
* Copyright(C) Murata Manufacturing Co., Ltd.
* Description :1005M(0402)/C0G(-55to125[deg])/3.60e-05[uF]/100[V]
* Murata P/N :GQM1555C2A360JB01
* Property : C = 3.60e-05[uF]
*----------------------------------------------------------------------
* Applicable Conditions:
*   Frequency Range = 100[MHz]-9[GHz]
*   Temperature = 25 degC
*   DC Bias Voltage = 0V
*   Small Signal Operation
*----------------------------------------------------------------------
.SUBCKT GQM1555C2A360JB01 Port1 Port2
C01 Port1 N01 3.60e-11
R01 Port1 N01 1.00e+10
L02 N01 N02 2.14e-10
R03 N02 N03 7.33e-02
C04 N03 N04 1.19e-10
L04 N03 N04 1.80e-11
R04 N03 N04 7.40e+00
C05 N04 N05 4.14e-11
L05 N04 N05 2.11e-11
R05 N04 N05 9.76e+00
C06 N05 Port2 3.73e-11
L06 N05 Port2 1.18e-11
R06 N05 Port2 6.85e+00
.ENDS GQM1555C2A360JB01
*----------------------------------------------------------------------
* SPICE Model generated by Murata Manufacturing Co., Ltd.
* Copyright(C) Murata Manufacturing Co., Ltd.
* Description :1005M(0402)/C0G(-55to125[deg])/3.90e-05[uF]/100[V]
* Murata P/N :GQM1555C2A390GB01
* Property : C = 3.90e-05[uF]
*----------------------------------------------------------------------
* Applicable Conditions:
*   Frequency Range = 100[MHz]-9[GHz]
*   Temperature = 25 degC
*   DC Bias Voltage = 0V
*   Small Signal Operation
*----------------------------------------------------------------------
.SUBCKT GQM1555C2A390GB01 Port1 Port2
C01 Port1 N01 3.90e-11
R01 Port1 N01 1.00e+10
L02 N01 N02 2.25e-10
R03 N02 N03 7.57e-02
C04 N03 N04 1.36e-10
L04 N03 N04 1.72e-11
R04 N03 N04 7.57e+00
C05 N04 N05 5.15e-11
L05 N04 N05 1.86e-11
R05 N04 N05 9.33e+00
C06 N05 N06 1.20e-10
L06 N05 N06 4.02e-12
R06 N05 N06 2.60e+00
C07 N06 Port2 2.10e-11
L07 N06 Port2 1.48e-11
R07 N06 Port2 1.56e+01
.ENDS GQM1555C2A390GB01
*----------------------------------------------------------------------
* SPICE Model generated by Murata Manufacturing Co., Ltd.
* Copyright(C) Murata Manufacturing Co., Ltd.
* Description :1005M(0402)/C0G(-55to125[deg])/3.90e-05[uF]/100[V]
* Murata P/N :GQM1555C2A390JB01
* Property : C = 3.90e-05[uF]
*----------------------------------------------------------------------
* Applicable Conditions:
*   Frequency Range = 100[MHz]-9[GHz]
*   Temperature = 25 degC
*   DC Bias Voltage = 0V
*   Small Signal Operation
*----------------------------------------------------------------------
.SUBCKT GQM1555C2A390JB01 Port1 Port2
C01 Port1 N01 3.90e-11
R01 Port1 N01 1.00e+10
L02 N01 N02 2.25e-10
R03 N02 N03 7.57e-02
C04 N03 N04 1.36e-10
L04 N03 N04 1.72e-11
R04 N03 N04 7.57e+00
C05 N04 N05 5.15e-11
L05 N04 N05 1.86e-11
R05 N04 N05 9.33e+00
C06 N05 N06 1.20e-10
L06 N05 N06 4.02e-12
R06 N05 N06 2.60e+00
C07 N06 Port2 2.10e-11
L07 N06 Port2 1.48e-11
R07 N06 Port2 1.56e+01
.ENDS GQM1555C2A390JB01
*----------------------------------------------------------------------
* SPICE Model generated by Murata Manufacturing Co., Ltd.
* Copyright(C) Murata Manufacturing Co., Ltd.
* Description :1005M(0402)/C0G(-55to125[deg])/4.30e-05[uF]/100[V]
* Murata P/N :GQM1555C2A430GB01
* Property : C = 4.30e-05[uF]
*----------------------------------------------------------------------
* Applicable Conditions:
*   Frequency Range = 100[MHz]-9[GHz]
*   Temperature = 25 degC
*   DC Bias Voltage = 0V
*   Small Signal Operation
*----------------------------------------------------------------------
.SUBCKT GQM1555C2A430GB01 Port1 Port2
C01 Port1 N01 4.30e-11
R01 Port1 N01 1.00e+10
L02 N01 N02 2.18e-10
R03 N02 N03 6.99e-02
C04 N03 N04 1.38e-10
L04 N03 N04 1.85e-11
R04 N03 N04 7.62e+00
C05 N04 N05 5.54e-11
L05 N04 N05 1.88e-11
R05 N04 N05 9.02e+00
C06 N05 N06 7.57e-11
L06 N05 N06 6.97e-12
R06 N05 N06 4.05e+00
C07 N06 Port2 3.73e-11
L07 N06 Port2 9.31e-12
R07 N06 Port2 5.02e+00
.ENDS GQM1555C2A430GB01
*----------------------------------------------------------------------
* SPICE Model generated by Murata Manufacturing Co., Ltd.
* Copyright(C) Murata Manufacturing Co., Ltd.
* Description :1005M(0402)/C0G(-55to125[deg])/4.30e-05[uF]/100[V]
* Murata P/N :GQM1555C2A430JB01
* Property : C = 4.30e-05[uF]
*----------------------------------------------------------------------
* Applicable Conditions:
*   Frequency Range = 100[MHz]-9[GHz]
*   Temperature = 25 degC
*   DC Bias Voltage = 0V
*   Small Signal Operation
*----------------------------------------------------------------------
.SUBCKT GQM1555C2A430JB01 Port1 Port2
C01 Port1 N01 4.30e-11
R01 Port1 N01 1.00e+10
L02 N01 N02 2.18e-10
R03 N02 N03 6.99e-02
C04 N03 N04 1.38e-10
L04 N03 N04 1.85e-11
R04 N03 N04 7.62e+00
C05 N04 N05 5.54e-11
L05 N04 N05 1.88e-11
R05 N04 N05 9.02e+00
C06 N05 N06 7.57e-11
L06 N05 N06 6.97e-12
R06 N05 N06 4.05e+00
C07 N06 Port2 3.73e-11
L07 N06 Port2 9.31e-12
R07 N06 Port2 5.02e+00
.ENDS GQM1555C2A430JB01
*----------------------------------------------------------------------
* SPICE Model generated by Murata Manufacturing Co., Ltd.
* Copyright(C) Murata Manufacturing Co., Ltd.
* Description :1005M(0402)/C0G(-55to125[deg])/4.70e-05[uF]/100[V]
* Murata P/N :GQM1555C2A470GB01
* Property : C = 4.70e-05[uF]
*----------------------------------------------------------------------
* Applicable Conditions:
*   Frequency Range = 100[MHz]-9[GHz]
*   Temperature = 25 degC
*   DC Bias Voltage = 0V
*   Small Signal Operation
*----------------------------------------------------------------------
.SUBCKT GQM1555C2A470GB01 Port1 Port2
C01 Port1 N01 4.70e-11
R01 Port1 N01 1.00e+10
L02 N01 N02 2.19e-10
R03 N02 N03 7.18e-02
C04 N03 N04 1.67e-10
L04 N03 N04 1.67e-11
R04 N03 N04 6.65e+00
C05 N04 N05 6.61e-11
L05 N04 N05 1.74e-11
R05 N04 N05 7.81e+00
C06 N05 N06 1.65e-10
L06 N05 N06 3.47e-12
R06 N05 N06 1.97e+00
C07 N06 N07 4.70e-11
L07 N06 N07 7.73e-12
R07 N06 N07 4.74e+00
C08 N07 Port2 8.15e-11
L08 N07 Port2 3.63e-12
R08 N07 Port2 3.90e+00
.ENDS GQM1555C2A470GB01
*----------------------------------------------------------------------
* SPICE Model generated by Murata Manufacturing Co., Ltd.
* Copyright(C) Murata Manufacturing Co., Ltd.
* Description :1005M(0402)/C0G(-55to125[deg])/4.70e-05[uF]/100[V]
* Murata P/N :GQM1555C2A470JB01
* Property : C = 4.70e-05[uF]
*----------------------------------------------------------------------
* Applicable Conditions:
*   Frequency Range = 100[MHz]-9[GHz]
*   Temperature = 25 degC
*   DC Bias Voltage = 0V
*   Small Signal Operation
*----------------------------------------------------------------------
.SUBCKT GQM1555C2A470JB01 Port1 Port2
C01 Port1 N01 4.70e-11
R01 Port1 N01 1.00e+10
L02 N01 N02 2.19e-10
R03 N02 N03 7.18e-02
C04 N03 N04 1.67e-10
L04 N03 N04 1.67e-11
R04 N03 N04 6.65e+00
C05 N04 N05 6.61e-11
L05 N04 N05 1.74e-11
R05 N04 N05 7.81e+00
C06 N05 N06 1.65e-10
L06 N05 N06 3.47e-12
R06 N05 N06 1.97e+00
C07 N06 N07 4.70e-11
L07 N06 N07 7.73e-12
R07 N06 N07 4.74e+00
C08 N07 Port2 8.15e-11
L08 N07 Port2 3.63e-12
R08 N07 Port2 3.90e+00
.ENDS GQM1555C2A470JB01
*----------------------------------------------------------------------
* SPICE Model generated by Murata Manufacturing Co., Ltd.
* Copyright(C) Murata Manufacturing Co., Ltd.
* Description :1005M(0402)/C0G(-55to125[deg])/1.00e-05[uF]/200[V]
* Murata P/N :GQM1555C2D100GB01
* Property : C = 1.00e-05[uF]
*----------------------------------------------------------------------
* Applicable Conditions:
*   Frequency Range = 100[MHz]-9[GHz]
*   Temperature = 25 degC
*   DC Bias Voltage = 0V
*   Small Signal Operation
*----------------------------------------------------------------------
.SUBCKT GQM1555C2D100GB01 Port1 Port2
C01 Port1 N01 1.00e-11
R01 Port1 N01 1.00e+10
L02 N01 N02 2.16e-10
R03 N02 N03 1.07e-01
C04 N03 N04 3.15e-11
L04 N03 N04 2.00e-11
R04 N03 N04 2.49e+01
C05 N04 Port2 9.28e-12
L05 N04 Port2 3.41e-11
R05 N04 Port2 7.73e+01
.ENDS GQM1555C2D100GB01
*----------------------------------------------------------------------
* SPICE Model generated by Murata Manufacturing Co., Ltd.
* Copyright(C) Murata Manufacturing Co., Ltd.
* Description :1005M(0402)/C0G(-55to125[deg])/1.00e-05[uF]/200[V]
* Murata P/N :GQM1555C2D100JB01
* Property : C = 1.00e-05[uF]
*----------------------------------------------------------------------
* Applicable Conditions:
*   Frequency Range = 100[MHz]-9[GHz]
*   Temperature = 25 degC
*   DC Bias Voltage = 0V
*   Small Signal Operation
*----------------------------------------------------------------------
.SUBCKT GQM1555C2D100JB01 Port1 Port2
C01 Port1 N01 1.00e-11
R01 Port1 N01 1.00e+10
L02 N01 N02 2.16e-10
R03 N02 N03 1.07e-01
C04 N03 N04 3.15e-11
L04 N03 N04 2.00e-11
R04 N03 N04 2.49e+01
C05 N04 Port2 9.28e-12
L05 N04 Port2 3.41e-11
R05 N04 Port2 7.73e+01
.ENDS GQM1555C2D100JB01
*----------------------------------------------------------------------
* SPICE Model generated by Murata Manufacturing Co., Ltd.
* Copyright(C) Murata Manufacturing Co., Ltd.
* Description :1005M(0402)/C0G(-55to125[deg])/1.10e-05[uF]/200[V]
* Murata P/N :GQM1555C2D110GB01
* Property : C = 1.10e-05[uF]
*----------------------------------------------------------------------
* Applicable Conditions:
*   Frequency Range = 100[MHz]-9[GHz]
*   Temperature = 25 degC
*   DC Bias Voltage = 0V
*   Small Signal Operation
*----------------------------------------------------------------------
.SUBCKT GQM1555C2D110GB01 Port1 Port2
C01 Port1 N01 1.10e-11
R01 Port1 N01 1.00e+10
L02 N01 N02 2.18e-10
R03 N02 N03 1.00e-01
C04 N03 N04 3.92e-11
L04 N03 N04 1.72e-11
R04 N03 N04 1.95e+01
C05 N04 Port2 1.11e-11
L05 N04 Port2 2.88e-11
R05 N04 Port2 1.92e+01
.ENDS GQM1555C2D110GB01
*----------------------------------------------------------------------
* SPICE Model generated by Murata Manufacturing Co., Ltd.
* Copyright(C) Murata Manufacturing Co., Ltd.
* Description :1005M(0402)/C0G(-55to125[deg])/1.10e-05[uF]/200[V]
* Murata P/N :GQM1555C2D110JB01
* Property : C = 1.10e-05[uF]
*----------------------------------------------------------------------
* Applicable Conditions:
*   Frequency Range = 100[MHz]-9[GHz]
*   Temperature = 25 degC
*   DC Bias Voltage = 0V
*   Small Signal Operation
*----------------------------------------------------------------------
.SUBCKT GQM1555C2D110JB01 Port1 Port2
C01 Port1 N01 1.10e-11
R01 Port1 N01 1.00e+10
L02 N01 N02 2.18e-10
R03 N02 N03 1.00e-01
C04 N03 N04 3.92e-11
L04 N03 N04 1.72e-11
R04 N03 N04 1.95e+01
C05 N04 Port2 1.11e-11
L05 N04 Port2 2.88e-11
R05 N04 Port2 1.92e+01
.ENDS GQM1555C2D110JB01
*----------------------------------------------------------------------
* SPICE Model generated by Murata Manufacturing Co., Ltd.
* Copyright(C) Murata Manufacturing Co., Ltd.
* Description :1005M(0402)/C0G(-55to125[deg])/1.20e-05[uF]/200[V]
* Murata P/N :GQM1555C2D120GB01
* Property : C = 1.20e-05[uF]
*----------------------------------------------------------------------
* Applicable Conditions:
*   Frequency Range = 100[MHz]-9[GHz]
*   Temperature = 25 degC
*   DC Bias Voltage = 0V
*   Small Signal Operation
*----------------------------------------------------------------------
.SUBCKT GQM1555C2D120GB01 Port1 Port2
C01 Port1 N01 1.20e-11
R01 Port1 N01 1.00e+10
L02 N01 N02 1.89e-10
R03 N02 N03 1.01e-01
C04 N03 N04 3.54e-11
L04 N03 N04 2.03e-11
R04 N03 N04 1.99e+01
C05 N04 Port2 5.57e-12
L05 N04 Port2 5.73e-11
R05 N04 Port2 7.87e+01
.ENDS GQM1555C2D120GB01
*----------------------------------------------------------------------
* SPICE Model generated by Murata Manufacturing Co., Ltd.
* Copyright(C) Murata Manufacturing Co., Ltd.
* Description :1005M(0402)/C0G(-55to125[deg])/1.20e-05[uF]/200[V]
* Murata P/N :GQM1555C2D120JB01
* Property : C = 1.20e-05[uF]
*----------------------------------------------------------------------
* Applicable Conditions:
*   Frequency Range = 100[MHz]-9[GHz]
*   Temperature = 25 degC
*   DC Bias Voltage = 0V
*   Small Signal Operation
*----------------------------------------------------------------------
.SUBCKT GQM1555C2D120JB01 Port1 Port2
C01 Port1 N01 1.20e-11
R01 Port1 N01 1.00e+10
L02 N01 N02 1.89e-10
R03 N02 N03 1.01e-01
C04 N03 N04 3.54e-11
L04 N03 N04 2.03e-11
R04 N03 N04 1.99e+01
C05 N04 Port2 5.57e-12
L05 N04 Port2 5.73e-11
R05 N04 Port2 7.87e+01
.ENDS GQM1555C2D120JB01
*----------------------------------------------------------------------
* SPICE Model generated by Murata Manufacturing Co., Ltd.
* Copyright(C) Murata Manufacturing Co., Ltd.
* Description :1005M(0402)/C0G(-55to125[deg])/1.30e-05[uF]/200[V]
* Murata P/N :GQM1555C2D130GB01
* Property : C = 1.30e-05[uF]
*----------------------------------------------------------------------
* Applicable Conditions:
*   Frequency Range = 100[MHz]-9[GHz]
*   Temperature = 25 degC
*   DC Bias Voltage = 0V
*   Small Signal Operation
*----------------------------------------------------------------------
.SUBCKT GQM1555C2D130GB01 Port1 Port2
C01 Port1 N01 1.30e-11
R01 Port1 N01 1.00e+10
L02 N01 N02 2.17e-10
R03 N02 N03 9.60e-02
C04 N03 N04 4.15e-11
L04 N03 N04 1.91e-11
R04 N03 N04 1.71e+01
C05 N04 Port2 1.14e-11
L05 N04 Port2 3.02e-11
R05 N04 Port2 3.43e+01
.ENDS GQM1555C2D130GB01
*----------------------------------------------------------------------
* SPICE Model generated by Murata Manufacturing Co., Ltd.
* Copyright(C) Murata Manufacturing Co., Ltd.
* Description :1005M(0402)/C0G(-55to125[deg])/1.30e-05[uF]/200[V]
* Murata P/N :GQM1555C2D130JB01
* Property : C = 1.30e-05[uF]
*----------------------------------------------------------------------
* Applicable Conditions:
*   Frequency Range = 100[MHz]-9[GHz]
*   Temperature = 25 degC
*   DC Bias Voltage = 0V
*   Small Signal Operation
*----------------------------------------------------------------------
.SUBCKT GQM1555C2D130JB01 Port1 Port2
C01 Port1 N01 1.30e-11
R01 Port1 N01 1.00e+10
L02 N01 N02 2.17e-10
R03 N02 N03 9.60e-02
C04 N03 N04 4.15e-11
L04 N03 N04 1.91e-11
R04 N03 N04 1.71e+01
C05 N04 Port2 1.14e-11
L05 N04 Port2 3.02e-11
R05 N04 Port2 3.43e+01
.ENDS GQM1555C2D130JB01
*----------------------------------------------------------------------
* SPICE Model generated by Murata Manufacturing Co., Ltd.
* Copyright(C) Murata Manufacturing Co., Ltd.
* Description :1005M(0402)/C0G(-55to125[deg])/1.50e-05[uF]/200[V]
* Murata P/N :GQM1555C2D150GB01
* Property : C = 1.50e-05[uF]
*----------------------------------------------------------------------
* Applicable Conditions:
*   Frequency Range = 100[MHz]-9[GHz]
*   Temperature = 25 degC
*   DC Bias Voltage = 0V
*   Small Signal Operation
*----------------------------------------------------------------------
.SUBCKT GQM1555C2D150GB01 Port1 Port2
C01 Port1 N01 1.50e-11
R01 Port1 N01 1.00e+10
L02 N01 N02 2.29e-10
R03 N02 N03 1.03e-01
C04 N03 N04 6.07e-11
L04 N03 N04 1.52e-11
R04 N03 N04 1.03e+01
C05 N04 N05 2.50e-11
L05 N04 N05 1.59e-11
R05 N04 N05 1.72e+01
C06 N05 Port2 2.29e-11
L06 N05 Port2 1.12e-11
R06 N05 Port2 4.10e+01
.ENDS GQM1555C2D150GB01
*----------------------------------------------------------------------
* SPICE Model generated by Murata Manufacturing Co., Ltd.
* Copyright(C) Murata Manufacturing Co., Ltd.
* Description :1005M(0402)/C0G(-55to125[deg])/1.50e-05[uF]/200[V]
* Murata P/N :GQM1555C2D150JB01
* Property : C = 1.50e-05[uF]
*----------------------------------------------------------------------
* Applicable Conditions:
*   Frequency Range = 100[MHz]-9[GHz]
*   Temperature = 25 degC
*   DC Bias Voltage = 0V
*   Small Signal Operation
*----------------------------------------------------------------------
.SUBCKT GQM1555C2D150JB01 Port1 Port2
C01 Port1 N01 1.50e-11
R01 Port1 N01 1.00e+10
L02 N01 N02 2.29e-10
R03 N02 N03 1.03e-01
C04 N03 N04 6.07e-11
L04 N03 N04 1.52e-11
R04 N03 N04 1.03e+01
C05 N04 N05 2.50e-11
L05 N04 N05 1.59e-11
R05 N04 N05 1.72e+01
C06 N05 Port2 2.29e-11
L06 N05 Port2 1.12e-11
R06 N05 Port2 4.10e+01
.ENDS GQM1555C2D150JB01
*----------------------------------------------------------------------
* SPICE Model generated by Murata Manufacturing Co., Ltd.
* Copyright(C) Murata Manufacturing Co., Ltd.
* Description :1005M(0402)/C0G(-55to125[deg])/1.60e-05[uF]/200[V]
* Murata P/N :GQM1555C2D160GB01
* Property : C = 1.60e-05[uF]
*----------------------------------------------------------------------
* Applicable Conditions:
*   Frequency Range = 100[MHz]-9[GHz]
*   Temperature = 25 degC
*   DC Bias Voltage = 0V
*   Small Signal Operation
*----------------------------------------------------------------------
.SUBCKT GQM1555C2D160GB01 Port1 Port2
C01 Port1 N01 1.60e-11
R01 Port1 N01 1.00e+10
L02 N01 N02 2.21e-10
R03 N02 N03 8.32e-02
L04 N03 N04 4.92e-12
R04 N03 N04 1.05e-01
C05 N04 N05 4.89e-11
L05 N04 N05 2.00e-11
R05 N04 N05 1.60e+01
C06 N05 Port2 1.90e-11
L06 N05 Port2 2.23e-11
R06 N05 Port2 2.22e+01
.ENDS GQM1555C2D160GB01
*----------------------------------------------------------------------
* SPICE Model generated by Murata Manufacturing Co., Ltd.
* Copyright(C) Murata Manufacturing Co., Ltd.
* Description :1005M(0402)/C0G(-55to125[deg])/1.60e-05[uF]/200[V]
* Murata P/N :GQM1555C2D160JB01
* Property : C = 1.60e-05[uF]
*----------------------------------------------------------------------
* Applicable Conditions:
*   Frequency Range = 100[MHz]-9[GHz]
*   Temperature = 25 degC
*   DC Bias Voltage = 0V
*   Small Signal Operation
*----------------------------------------------------------------------
.SUBCKT GQM1555C2D160JB01 Port1 Port2
C01 Port1 N01 1.60e-11
R01 Port1 N01 1.00e+10
L02 N01 N02 2.21e-10
R03 N02 N03 8.32e-02
L04 N03 N04 4.92e-12
R04 N03 N04 1.05e-01
C05 N04 N05 4.89e-11
L05 N04 N05 2.00e-11
R05 N04 N05 1.60e+01
C06 N05 Port2 1.90e-11
L06 N05 Port2 2.23e-11
R06 N05 Port2 2.22e+01
.ENDS GQM1555C2D160JB01
*----------------------------------------------------------------------
* SPICE Model generated by Murata Manufacturing Co., Ltd.
* Copyright(C) Murata Manufacturing Co., Ltd.
* Description :1005M(0402)/C0G(-55to125[deg])/1.80e-05[uF]/200[V]
* Murata P/N :GQM1555C2D180GB01
* Property : C = 1.80e-05[uF]
*----------------------------------------------------------------------
* Applicable Conditions:
*   Frequency Range = 100[MHz]-9[GHz]
*   Temperature = 25 degC
*   DC Bias Voltage = 0V
*   Small Signal Operation
*----------------------------------------------------------------------
.SUBCKT GQM1555C2D180GB01 Port1 Port2
C01 Port1 N01 1.80e-11
R01 Port1 N01 1.00e+10
L02 N01 N02 2.28e-10
R03 N02 N03 1.02e-01
L04 N03 N04 3.13e-11
R04 N03 N04 8.54e+00
C05 N04 N05 7.53e-11
L05 N04 N05 1.45e-11
R05 N04 N05 1.11e+01
C06 N05 N06 3.27e-11
L06 N05 N06 1.40e-11
R06 N05 N06 1.66e+01
C07 N06 Port2 1.64e-11
L07 N06 Port2 1.85e-11
R07 N06 Port2 6.95e+00
.ENDS GQM1555C2D180GB01
*----------------------------------------------------------------------
* SPICE Model generated by Murata Manufacturing Co., Ltd.
* Copyright(C) Murata Manufacturing Co., Ltd.
* Description :1005M(0402)/C0G(-55to125[deg])/1.80e-05[uF]/200[V]
* Murata P/N :GQM1555C2D180JB01
* Property : C = 1.80e-05[uF]
*----------------------------------------------------------------------
* Applicable Conditions:
*   Frequency Range = 100[MHz]-9[GHz]
*   Temperature = 25 degC
*   DC Bias Voltage = 0V
*   Small Signal Operation
*----------------------------------------------------------------------
.SUBCKT GQM1555C2D180JB01 Port1 Port2
C01 Port1 N01 1.80e-11
R01 Port1 N01 1.00e+10
L02 N01 N02 2.28e-10
R03 N02 N03 1.02e-01
L04 N03 N04 3.13e-11
R04 N03 N04 8.54e+00
C05 N04 N05 7.53e-11
L05 N04 N05 1.45e-11
R05 N04 N05 1.11e+01
C06 N05 N06 3.27e-11
L06 N05 N06 1.40e-11
R06 N05 N06 1.66e+01
C07 N06 Port2 1.64e-11
L07 N06 Port2 1.85e-11
R07 N06 Port2 6.95e+00
.ENDS GQM1555C2D180JB01
*----------------------------------------------------------------------
* SPICE Model generated by Murata Manufacturing Co., Ltd.
* Copyright(C) Murata Manufacturing Co., Ltd.
* Description :1005M(0402)/C0G(-55to125[deg])/1.00e-06[uF]/200[V]
* Murata P/N :GQM1555C2D1R0BB01
* Property : C = 1.00e-06[uF]
*----------------------------------------------------------------------
* Applicable Conditions:
*   Frequency Range = 100[MHz]-20[GHz]
*   Temperature = 25 degC
*   DC Bias Voltage = 0V
*   Small Signal Operation
*----------------------------------------------------------------------
.SUBCKT GQM1555C2D1R0BB01 Port1 Port2
C01 Port1 N01 1.00e-12
R01 Port1 N01 1.00e+10
L02 N01 N02 1.99e-10
R03 N02 N03 2.29e-01
C04 N03 N04 2.45e-11
L04 N03 N04 2.90e-12
R04 N03 N04 6.67e+00
C05 N04 N05 8.86e-12
L05 N04 N05 5.21e-12
R05 N04 N05 1.51e+01
C06 N05 Port2 3.21e-13
L06 N05 Port2 1.21e-10
R06 N05 Port2 1.00e+08
.ENDS GQM1555C2D1R0BB01
*----------------------------------------------------------------------
* SPICE Model generated by Murata Manufacturing Co., Ltd.
* Copyright(C) Murata Manufacturing Co., Ltd.
* Description :1005M(0402)/C0G(-55to125[deg])/1.00e-06[uF]/200[V]
* Murata P/N :GQM1555C2D1R0CB01
* Property : C = 1.00e-06[uF]
*----------------------------------------------------------------------
* Applicable Conditions:
*   Frequency Range = 100[MHz]-20[GHz]
*   Temperature = 25 degC
*   DC Bias Voltage = 0V
*   Small Signal Operation
*----------------------------------------------------------------------
.SUBCKT GQM1555C2D1R0CB01 Port1 Port2
C01 Port1 N01 1.00e-12
R01 Port1 N01 1.00e+10
L02 N01 N02 1.99e-10
R03 N02 N03 2.29e-01
C04 N03 N04 2.45e-11
L04 N03 N04 2.90e-12
R04 N03 N04 6.67e+00
C05 N04 N05 8.86e-12
L05 N04 N05 5.21e-12
R05 N04 N05 1.51e+01
C06 N05 Port2 3.21e-13
L06 N05 Port2 1.21e-10
R06 N05 Port2 1.00e+08
.ENDS GQM1555C2D1R0CB01
*----------------------------------------------------------------------
* SPICE Model generated by Murata Manufacturing Co., Ltd.
* Copyright(C) Murata Manufacturing Co., Ltd.
* Description :1005M(0402)/C0G(-55to125[deg])/1.10e-06[uF]/200[V]
* Murata P/N :GQM1555C2D1R1BB01
* Property : C = 1.10e-06[uF]
*----------------------------------------------------------------------
* Applicable Conditions:
*   Frequency Range = 100[MHz]-9[GHz]
*   Temperature = 25 degC
*   DC Bias Voltage = 0V
*   Small Signal Operation
*----------------------------------------------------------------------
.SUBCKT GQM1555C2D1R1BB01 Port1 Port2
C01 Port1 N01 1.10e-12
R01 Port1 N01 1.00e+10
L02 N01 N02 2.65e-10
R03 N02 N03 1.44e-01
L04 N03 Port2 1.10e-11
R04 N03 Port2 2.48e-01
.ENDS GQM1555C2D1R1BB01
*----------------------------------------------------------------------
* SPICE Model generated by Murata Manufacturing Co., Ltd.
* Copyright(C) Murata Manufacturing Co., Ltd.
* Description :1005M(0402)/C0G(-55to125[deg])/1.10e-06[uF]/200[V]
* Murata P/N :GQM1555C2D1R1CB01
* Property : C = 1.10e-06[uF]
*----------------------------------------------------------------------
* Applicable Conditions:
*   Frequency Range = 100[MHz]-9[GHz]
*   Temperature = 25 degC
*   DC Bias Voltage = 0V
*   Small Signal Operation
*----------------------------------------------------------------------
.SUBCKT GQM1555C2D1R1CB01 Port1 Port2
C01 Port1 N01 1.10e-12
R01 Port1 N01 1.00e+10
L02 N01 N02 2.65e-10
R03 N02 N03 1.44e-01
L04 N03 Port2 1.10e-11
R04 N03 Port2 2.48e-01
.ENDS GQM1555C2D1R1CB01
*----------------------------------------------------------------------
* SPICE Model generated by Murata Manufacturing Co., Ltd.
* Copyright(C) Murata Manufacturing Co., Ltd.
* Description :1005M(0402)/C0G(-55to125[deg])/1.20e-06[uF]/200[V]
* Murata P/N :GQM1555C2D1R2BB01
* Property : C = 1.20e-06[uF]
*----------------------------------------------------------------------
* Applicable Conditions:
*   Frequency Range = 100[MHz]-9[GHz]
*   Temperature = 25 degC
*   DC Bias Voltage = 0V
*   Small Signal Operation
*----------------------------------------------------------------------
.SUBCKT GQM1555C2D1R2BB01 Port1 Port2
C01 Port1 N01 1.20e-12
R01 Port1 N01 1.00e+10
L02 N01 N02 2.81e-10
R03 N02 N03 1.41e-01
L04 N03 Port2 1.16e-11
R04 N03 Port2 1.37e-01
.ENDS GQM1555C2D1R2BB01
*----------------------------------------------------------------------
* SPICE Model generated by Murata Manufacturing Co., Ltd.
* Copyright(C) Murata Manufacturing Co., Ltd.
* Description :1005M(0402)/C0G(-55to125[deg])/1.20e-06[uF]/200[V]
* Murata P/N :GQM1555C2D1R2CB01
* Property : C = 1.20e-06[uF]
*----------------------------------------------------------------------
* Applicable Conditions:
*   Frequency Range = 100[MHz]-9[GHz]
*   Temperature = 25 degC
*   DC Bias Voltage = 0V
*   Small Signal Operation
*----------------------------------------------------------------------
.SUBCKT GQM1555C2D1R2CB01 Port1 Port2
C01 Port1 N01 1.20e-12
R01 Port1 N01 1.00e+10
L02 N01 N02 2.81e-10
R03 N02 N03 1.41e-01
L04 N03 Port2 1.16e-11
R04 N03 Port2 1.37e-01
.ENDS GQM1555C2D1R2CB01
*----------------------------------------------------------------------
* SPICE Model generated by Murata Manufacturing Co., Ltd.
* Copyright(C) Murata Manufacturing Co., Ltd.
* Description :1005M(0402)/C0G(-55to125[deg])/1.30e-06[uF]/200[V]
* Murata P/N :GQM1555C2D1R3BB01
* Property : C = 1.30e-06[uF]
*----------------------------------------------------------------------
* Applicable Conditions:
*   Frequency Range = 100[MHz]-9[GHz]
*   Temperature = 25 degC
*   DC Bias Voltage = 0V
*   Small Signal Operation
*----------------------------------------------------------------------
.SUBCKT GQM1555C2D1R3BB01 Port1 Port2
C01 Port1 N01 1.30e-12
R01 Port1 N01 1.00e+10
L02 N01 N02 2.73e-10
R03 N02 N03 1.37e-01
L04 N03 Port2 1.63e-11
R04 N03 Port2 2.41e-01
.ENDS GQM1555C2D1R3BB01
*----------------------------------------------------------------------
* SPICE Model generated by Murata Manufacturing Co., Ltd.
* Copyright(C) Murata Manufacturing Co., Ltd.
* Description :1005M(0402)/C0G(-55to125[deg])/1.30e-06[uF]/200[V]
* Murata P/N :GQM1555C2D1R3CB01
* Property : C = 1.30e-06[uF]
*----------------------------------------------------------------------
* Applicable Conditions:
*   Frequency Range = 100[MHz]-9[GHz]
*   Temperature = 25 degC
*   DC Bias Voltage = 0V
*   Small Signal Operation
*----------------------------------------------------------------------
.SUBCKT GQM1555C2D1R3CB01 Port1 Port2
C01 Port1 N01 1.30e-12
R01 Port1 N01 1.00e+10
L02 N01 N02 2.73e-10
R03 N02 N03 1.37e-01
L04 N03 Port2 1.63e-11
R04 N03 Port2 2.41e-01
.ENDS GQM1555C2D1R3CB01
*----------------------------------------------------------------------
* SPICE Model generated by Murata Manufacturing Co., Ltd.
* Copyright(C) Murata Manufacturing Co., Ltd.
* Description :1005M(0402)/C0G(-55to125[deg])/1.50e-06[uF]/200[V]
* Murata P/N :GQM1555C2D1R5BB01
* Property : C = 1.50e-06[uF]
*----------------------------------------------------------------------
* Applicable Conditions:
*   Frequency Range = 100[MHz]-9[GHz]
*   Temperature = 25 degC
*   DC Bias Voltage = 0V
*   Small Signal Operation
*----------------------------------------------------------------------
.SUBCKT GQM1555C2D1R5BB01 Port1 Port2
C01 Port1 N01 1.50e-12
R01 Port1 N01 1.00e+10
L02 N01 N02 2.59e-10
R03 N02 N03 1.32e-01
L04 N03 N04 3.98e-12
R04 N03 N04 3.37e-02
C05 N04 Port2 1.59e-10
L05 N04 Port2 2.00e-12
R05 N04 Port2 1.44e+00
.ENDS GQM1555C2D1R5BB01
*----------------------------------------------------------------------
* SPICE Model generated by Murata Manufacturing Co., Ltd.
* Copyright(C) Murata Manufacturing Co., Ltd.
* Description :1005M(0402)/C0G(-55to125[deg])/1.50e-06[uF]/200[V]
* Murata P/N :GQM1555C2D1R5CB01
* Property : C = 1.50e-06[uF]
*----------------------------------------------------------------------
* Applicable Conditions:
*   Frequency Range = 100[MHz]-9[GHz]
*   Temperature = 25 degC
*   DC Bias Voltage = 0V
*   Small Signal Operation
*----------------------------------------------------------------------
.SUBCKT GQM1555C2D1R5CB01 Port1 Port2
C01 Port1 N01 1.50e-12
R01 Port1 N01 1.00e+10
L02 N01 N02 2.59e-10
R03 N02 N03 1.32e-01
L04 N03 N04 3.98e-12
R04 N03 N04 3.37e-02
C05 N04 Port2 1.59e-10
L05 N04 Port2 2.00e-12
R05 N04 Port2 1.44e+00
.ENDS GQM1555C2D1R5CB01
*----------------------------------------------------------------------
* SPICE Model generated by Murata Manufacturing Co., Ltd.
* Copyright(C) Murata Manufacturing Co., Ltd.
* Description :1005M(0402)/C0G(-55to125[deg])/1.60e-06[uF]/200[V]
* Murata P/N :GQM1555C2D1R6BB01
* Property : C = 1.60e-06[uF]
*----------------------------------------------------------------------
* Applicable Conditions:
*   Frequency Range = 100[MHz]-9[GHz]
*   Temperature = 25 degC
*   DC Bias Voltage = 0V
*   Small Signal Operation
*----------------------------------------------------------------------
.SUBCKT GQM1555C2D1R6BB01 Port1 Port2
C01 Port1 N01 1.60e-12
R01 Port1 N01 1.00e+10
L02 N01 N02 2.77e-10
R03 N02 N03 1.31e-01
L04 N03 N04 1.12e-11
R04 N03 N04 8.03e-02
C05 N04 Port2 1.92e-10
L05 N04 Port2 1.70e-12
R05 N04 Port2 2.15e+00
.ENDS GQM1555C2D1R6BB01
*----------------------------------------------------------------------
* SPICE Model generated by Murata Manufacturing Co., Ltd.
* Copyright(C) Murata Manufacturing Co., Ltd.
* Description :1005M(0402)/C0G(-55to125[deg])/1.60e-06[uF]/200[V]
* Murata P/N :GQM1555C2D1R6CB01