*----------------------------------------------------------------------
* SPICE Model generated by Murata Manufacturing Co., Ltd.
* Copyright(C) Murata Manufacturing Co., Ltd.
* Description :1005M(0402)/X5R(-55to85[deg])/1.00e+01[uF]/6.3[V]
* Murata P/N :GRJ155R60J106ME11
* Property : C = 1.00e+01[uF]
*----------------------------------------------------------------------
* Applicable Conditions:
*   Frequency Range = 100[Hz]-6[GHz]
*   Temperature = 25 degC
*   DC Bias Voltage = 0V
*   Small Signal Operation
*----------------------------------------------------------------------
.SUBCKT GRJ155R60J106ME11 Port1 Port2
C01 Port1 N01 8.77e-06
R01 Port1 N01 5.00e+06
L02 N01 N02 1.61e-10
R03 N02 N03 1.82e-02
C04 N03 N04 2.96e-04
R04 N03 N04 2.30e+01
C05 N04 N05 6.91e-04
R05 N04 N05 1.27e+00
C06 N05 N06 6.25e-04
R06 N05 N06 1.91e-01
C07 N06 N07 4.37e-04
R07 N06 N07 1.79e-02
L08 N07 N08 4.83e-11
R08 N07 N08 8.67e-02
L09 N08 N09 1.77e-10
R09 N08 N09 2.35e-02
C10 N09 N10 5.60e-06
L10 N09 N10 1.34e-10
R10 N09 N10 3.87e-03
C11 N10 Port2 7.93e-11
L11 N10 Port2 1.04e-11
R11 N10 Port2 1.70e-01
.ENDS GRJ155R60J106ME11
*----------------------------------------------------------------------
* SPICE Model generated by Murata Manufacturing Co., Ltd.
* Copyright(C) Murata Manufacturing Co., Ltd.
* Description :1608M(0603)/X7S(-55to125[deg])/4.70e+00[uF]/6.3[V]
* Murata P/N :GRJ188C70J475KE11
* Property : C = 4.70e+00[uF]
*----------------------------------------------------------------------
* Applicable Conditions:
*   Frequency Range = 100[Hz]-6[GHz]
*   Temperature = 25 degC
*   DC Bias Voltage = 0V
*   Small Signal Operation
*----------------------------------------------------------------------
.SUBCKT GRJ188C70J475KE11 Port1 Port2
C01 Port1 N01 3.26e-06
R01 Port1 N01 1.06e+07
L02 N01 N02 2.40e-10
R03 N02 N03 1.32e-02
C04 N03 N04 2.01e-04
R04 N03 N04 3.90e+01
C05 N04 N05 2.03e-04
R05 N04 N05 5.64e+00
C06 N05 N06 1.67e-04
R06 N05 N06 9.05e-01
C07 N06 N07 1.64e-04
R07 N06 N07 1.05e-01
C08 N07 N08 1.02e-04
R08 N07 N08 1.95e-02
L09 N08 N09 1.46e-11
R09 N08 N09 1.14e-01
L10 N09 N10 4.70e-11
R10 N09 N10 5.57e-02
L11 N10 N11 3.24e-10
R11 N10 N11 2.66e-02
C12 N11 N12 2.00e-05
L12 N11 N12 3.44e-11
R12 N11 N12 3.89e-03
C13 N12 N13 5.07e-06
L13 N12 N13 6.48e-11
R13 N12 N13 6.28e-03
C14 N13 Port2 5.95e-12
L14 N13 Port2 4.85e-11
R14 N13 Port2 1.14e+01
.ENDS GRJ188C70J475KE11
*----------------------------------------------------------------------
* SPICE Model generated by Murata Manufacturing Co., Ltd.
* Copyright(C) Murata Manufacturing Co., Ltd.
* Description :1608M(0603)/X7S(-55to125[deg])/4.70e+00[uF]/6.3[V]
* Murata P/N :GRJ188C70J475ME11
* Property : C = 4.70e+00[uF]
*----------------------------------------------------------------------
* Applicable Conditions:
*   Frequency Range = 100[Hz]-6[GHz]
*   Temperature = 25 degC
*   DC Bias Voltage = 0V
*   Small Signal Operation
*----------------------------------------------------------------------
.SUBCKT GRJ188C70J475ME11 Port1 Port2
C01 Port1 N01 3.26e-06
R01 Port1 N01 1.06e+07
L02 N01 N02 2.40e-10
R03 N02 N03 1.32e-02
C04 N03 N04 2.01e-04
R04 N03 N04 3.90e+01
C05 N04 N05 2.03e-04
R05 N04 N05 5.64e+00
C06 N05 N06 1.67e-04
R06 N05 N06 9.05e-01
C07 N06 N07 1.64e-04
R07 N06 N07 1.05e-01
C08 N07 N08 1.02e-04
R08 N07 N08 1.95e-02
L09 N08 N09 1.46e-11
R09 N08 N09 1.14e-01
L10 N09 N10 4.70e-11
R10 N09 N10 5.57e-02
L11 N10 N11 3.24e-10
R11 N10 N11 2.66e-02
C12 N11 N12 2.00e-05
L12 N11 N12 3.44e-11
R12 N11 N12 3.89e-03
C13 N12 N13 5.07e-06
L13 N12 N13 6.48e-11
R13 N12 N13 6.28e-03
C14 N13 Port2 5.95e-12
L14 N13 Port2 4.85e-11
R14 N13 Port2 1.14e+01
.ENDS GRJ188C70J475ME11
*----------------------------------------------------------------------
* SPICE Model generated by Murata Manufacturing Co., Ltd.
* Copyright(C) Murata Manufacturing Co., Ltd.
* Description :1608M(0603)/X5R(-55to85[deg])/1.00e+01[uF]/6.3[V]
* Murata P/N :GRJ188R60J106ME11
* Property : C = 1.00e+01[uF]
*----------------------------------------------------------------------
* Applicable Conditions:
*   Frequency Range = 100[Hz]-6[GHz]
*   Temperature = 25 degC
*   DC Bias Voltage = 0V
*   Small Signal Operation
*----------------------------------------------------------------------
.SUBCKT GRJ188R60J106ME11 Port1 Port2
C01 Port1 N01 7.30e-06
R01 Port1 N01 5.00e+06
L02 N01 N02 8.93e-12
R03 N02 N03 7.43e-03
C04 N03 N04 3.22e-04
R04 N03 N04 1.61e+01
C05 N04 N05 4.10e-04
R05 N04 N05 1.22e+00
C06 N05 N06 5.95e-04
R06 N05 N06 1.01e-01
C07 N06 N07 6.64e-04
R07 N06 N07 1.65e-02
C08 N07 N08 2.91e-04
R08 N07 N08 4.03e-03
L09 N08 N09 2.04e-11
R09 N08 N09 9.19e-02
L10 N09 N10 5.81e-11
R10 N09 N10 2.83e-02
L11 N10 N11 2.90e-10
R11 N10 N11 1.54e-02
C12 N11 N12 1.90e-05
L12 N11 N12 6.40e-11
R12 N11 N12 2.53e-03
C13 N12 N13 3.71e-05
L13 N12 N13 1.91e-11
R13 N12 N13 1.62e-03
C14 N13 Port2 7.07e-13
L14 N13 Port2 2.29e-10
R14 N13 Port2 1.03e+02
.ENDS GRJ188R60J106ME11
*----------------------------------------------------------------------
* SPICE Model generated by Murata Manufacturing Co., Ltd.
* Copyright(C) Murata Manufacturing Co., Ltd.
* Description :1608M(0603)/X5R(-55to85[deg])/4.70e+00[uF]/6.3[V]
* Murata P/N :GRJ188R60J475KE11
* Property : C = 4.70e+00[uF]
*----------------------------------------------------------------------
* Applicable Conditions:
*   Frequency Range = 100[Hz]-6[GHz]
*   Temperature = 25 degC
*   DC Bias Voltage = 0V
*   Small Signal Operation
*----------------------------------------------------------------------
.SUBCKT GRJ188R60J475KE11 Port1 Port2
C01 Port1 N01 3.67e-06
R01 Port1 N01 1.06e+07
L02 N01 N02 1.48e-10
R03 N02 N03 1.02e-02
C04 N03 N04 2.98e-04
R04 N03 N04 1.78e+01
C05 N04 N05 2.38e-04
R05 N04 N05 3.10e+00
C06 N05 N06 2.69e-04
R06 N05 N06 3.18e-01
C07 N06 N07 2.31e-04
R07 N06 N07 3.47e-02
C08 N07 N08 1.54e-04
R08 N07 N08 5.37e-03
L09 N08 N09 2.43e-11
R09 N08 N09 1.14e-01
L10 N09 N10 2.55e-10
R10 N09 N10 2.25e-02
L11 N10 N11 3.81e-11
R11 N10 N11 2.17e-02
C12 N11 N12 1.22e-05
L12 N11 N12 5.18e-11
R12 N11 N12 3.31e-03
C13 N12 N13 5.47e-06
L13 N12 N13 5.02e-11
R13 N12 N13 4.25e-03
C14 N13 Port2 4.22e-12
L14 N13 Port2 8.11e-11
R14 N13 Port2 3.37e+01
.ENDS GRJ188R60J475KE11
*----------------------------------------------------------------------
* SPICE Model generated by Murata Manufacturing Co., Ltd.
* Copyright(C) Murata Manufacturing Co., Ltd.
* Description :1608M(0603)/X5R(-55to85[deg])/4.70e+00[uF]/6.3[V]
* Murata P/N :GRJ188R60J475ME11
* Property : C = 4.70e+00[uF]
*----------------------------------------------------------------------
* Applicable Conditions:
*   Frequency Range = 100[Hz]-6[GHz]
*   Temperature = 25 degC
*   DC Bias Voltage = 0V
*   Small Signal Operation
*----------------------------------------------------------------------
.SUBCKT GRJ188R60J475ME11 Port1 Port2
C01 Port1 N01 3.67e-06
R01 Port1 N01 1.06e+07
L02 N01 N02 1.48e-10
R03 N02 N03 1.02e-02
C04 N03 N04 2.98e-04
R04 N03 N04 1.78e+01
C05 N04 N05 2.38e-04
R05 N04 N05 3.10e+00
C06 N05 N06 2.69e-04
R06 N05 N06 3.18e-01
C07 N06 N07 2.31e-04
R07 N06 N07 3.47e-02
C08 N07 N08 1.54e-04
R08 N07 N08 5.37e-03
L09 N08 N09 2.43e-11
R09 N08 N09 1.14e-01
L10 N09 N10 2.55e-10
R10 N09 N10 2.25e-02
L11 N10 N11 3.81e-11
R11 N10 N11 2.17e-02
C12 N11 N12 1.22e-05
L12 N11 N12 5.18e-11
R12 N11 N12 3.31e-03
C13 N12 N13 5.47e-06
L13 N12 N13 5.02e-11
R13 N12 N13 4.25e-03
C14 N13 Port2 4.22e-12
L14 N13 Port2 8.11e-11
R14 N13 Port2 3.37e+01
.ENDS GRJ188R60J475ME11
*----------------------------------------------------------------------
* SPICE Model generated by Murata Manufacturing Co., Ltd.
* Copyright(C) Murata Manufacturing Co., Ltd.
* Description :1608M(0603)/X5R(-55to85[deg])/1.00e+01[uF]/10[V]
* Murata P/N :GRJ188R61A106ME11
* Property : C = 1.00e+01[uF]
*----------------------------------------------------------------------
* Applicable Conditions:
*   Frequency Range = 100[Hz]-6[GHz]
*   Temperature = 25 degC
*   DC Bias Voltage = 0V
*   Small Signal Operation
*----------------------------------------------------------------------
.SUBCKT GRJ188R61A106ME11 Port1 Port2
C01 Port1 N01 7.30e-06
R01 Port1 N01 5.00e+06
L02 N01 N02 8.93e-12
R03 N02 N03 7.43e-03
C04 N03 N04 3.22e-04
R04 N03 N04 1.61e+01
C05 N04 N05 4.10e-04
R05 N04 N05 1.22e+00
C06 N05 N06 5.95e-04
R06 N05 N06 1.01e-01
C07 N06 N07 6.64e-04
R07 N06 N07 1.65e-02
C08 N07 N08 2.91e-04
R08 N07 N08 4.03e-03
L09 N08 N09 2.04e-11
R09 N08 N09 9.19e-02
L10 N09 N10 5.81e-11
R10 N09 N10 2.83e-02
L11 N10 N11 2.90e-10
R11 N10 N11 1.54e-02
C12 N11 N12 1.90e-05
L12 N11 N12 6.40e-11
R12 N11 N12 2.53e-03
C13 N12 N13 3.71e-05
L13 N12 N13 1.91e-11
R13 N12 N13 1.62e-03
C14 N13 Port2 7.07e-13
L14 N13 Port2 2.29e-10
R14 N13 Port2 1.03e+02
.ENDS GRJ188R61A106ME11
*----------------------------------------------------------------------
* SPICE Model generated by Murata Manufacturing Co., Ltd.
* Copyright(C) Murata Manufacturing Co., Ltd.
* Description :1608M(0603)/X5R(-55to85[deg])/4.70e+00[uF]/10[V]
* Murata P/N :GRJ188R61A475KE11
* Property : C = 4.70e+00[uF]
*----------------------------------------------------------------------
* Applicable Conditions:
*   Frequency Range = 100[Hz]-6[GHz]
*   Temperature = 25 degC
*   DC Bias Voltage = 0V
*   Small Signal Operation
*----------------------------------------------------------------------
.SUBCKT GRJ188R61A475KE11 Port1 Port2
C01 Port1 N01 3.67e-06
R01 Port1 N01 1.06e+07
L02 N01 N02 1.48e-10
R03 N02 N03 1.02e-02
C04 N03 N04 2.98e-04
R04 N03 N04 1.78e+01
C05 N04 N05 2.38e-04
R05 N04 N05 3.10e+00
C06 N05 N06 2.69e-04
R06 N05 N06 3.18e-01
C07 N06 N07 2.31e-04
R07 N06 N07 3.47e-02
C08 N07 N08 1.54e-04
R08 N07 N08 5.37e-03
L09 N08 N09 2.43e-11
R09 N08 N09 1.14e-01
L10 N09 N10 2.55e-10
R10 N09 N10 2.25e-02
L11 N10 N11 3.81e-11
R11 N10 N11 2.17e-02
C12 N11 N12 1.22e-05
L12 N11 N12 5.18e-11
R12 N11 N12 3.31e-03
C13 N12 N13 5.47e-06
L13 N12 N13 5.02e-11
R13 N12 N13 4.25e-03
C14 N13 Port2 4.22e-12
L14 N13 Port2 8.11e-11
R14 N13 Port2 3.37e+01
.ENDS GRJ188R61A475KE11
*----------------------------------------------------------------------
* SPICE Model generated by Murata Manufacturing Co., Ltd.
* Copyright(C) Murata Manufacturing Co., Ltd.
* Description :1608M(0603)/X5R(-55to85[deg])/4.70e+00[uF]/10[V]
* Murata P/N :GRJ188R61A475ME11
* Property : C = 4.70e+00[uF]
*----------------------------------------------------------------------
* Applicable Conditions:
*   Frequency Range = 100[Hz]-6[GHz]
*   Temperature = 25 degC
*   DC Bias Voltage = 0V
*   Small Signal Operation
*----------------------------------------------------------------------
.SUBCKT GRJ188R61A475ME11 Port1 Port2
C01 Port1 N01 3.67e-06
R01 Port1 N01 1.06e+07
L02 N01 N02 1.48e-10
R03 N02 N03 1.02e-02
C04 N03 N04 2.98e-04
R04 N03 N04 1.78e+01
C05 N04 N05 2.38e-04
R05 N04 N05 3.10e+00
C06 N05 N06 2.69e-04
R06 N05 N06 3.18e-01
C07 N06 N07 2.31e-04
R07 N06 N07 3.47e-02
C08 N07 N08 1.54e-04
R08 N07 N08 5.37e-03
L09 N08 N09 2.43e-11
R09 N08 N09 1.14e-01
L10 N09 N10 2.55e-10
R10 N09 N10 2.25e-02
L11 N10 N11 3.81e-11
R11 N10 N11 2.17e-02
C12 N11 N12 1.22e-05
L12 N11 N12 5.18e-11
R12 N11 N12 3.31e-03
C13 N12 N13 5.47e-06
L13 N12 N13 5.02e-11
R13 N12 N13 4.25e-03
C14 N13 Port2 4.22e-12
L14 N13 Port2 8.11e-11
R14 N13 Port2 3.37e+01
.ENDS GRJ188R61A475ME11
*----------------------------------------------------------------------
* SPICE Model generated by Murata Manufacturing Co., Ltd.
* Copyright(C) Murata Manufacturing Co., Ltd.
* Description :1608M(0603)/X5R(-55to85[deg])/1.00e+00[uF]/16[V]
* Murata P/N :GRJ188R61C105KE11
* Property : C = 1.00e+00[uF]
*----------------------------------------------------------------------
* Applicable Conditions:
*   Frequency Range = 100[Hz]-6[GHz]
*   Temperature = 25 degC
*   DC Bias Voltage = 0V
*   Small Signal Operation
*----------------------------------------------------------------------
.SUBCKT GRJ188R61C105KE11 Port1 Port2
C01 Port1 N01 7.52e-07
R01 Port1 N01 5.00e+07
L02 N01 N02 2.12e-10
R03 N02 N03 1.54e-02
C04 N03 N04 8.11e-06
R04 N03 N04 7.17e+02
C05 N04 N05 4.11e-05
R05 N04 N05 1.75e+01
C06 N05 N06 2.33e-05
R06 N05 N06 5.06e+00
C07 N06 N07 2.04e-05
R07 N06 N07 5.64e-01
C08 N07 N08 1.42e-05
R08 N07 N08 9.33e-02
C09 N08 N09 1.17e-05
R09 N08 N09 1.11e-02
L10 N09 N10 3.50e-11
R10 N09 N10 1.17e-01
L11 N10 N11 2.16e-10
R11 N10 N11 4.56e-02
C12 N11 N12 4.45e-06
L12 N11 N12 2.30e-11
R12 N11 N12 7.82e-03
C13 N12 N13 1.53e-06
L13 N12 N13 3.38e-11
R13 N12 N13 1.36e-02
C14 N13 Port2 6.50e-12
L14 N13 Port2 7.56e-11
R14 N13 Port2 1.11e+01
.ENDS GRJ188R61C105KE11
*----------------------------------------------------------------------
* SPICE Model generated by Murata Manufacturing Co., Ltd.
* Copyright(C) Murata Manufacturing Co., Ltd.
* Description :1608M(0603)/X5R(-55to85[deg])/1.00e+00[uF]/16[V]
* Murata P/N :GRJ188R61C105ME11
* Property : C = 1.00e+00[uF]
*----------------------------------------------------------------------
* Applicable Conditions:
*   Frequency Range = 100[Hz]-6[GHz]
*   Temperature = 25 degC
*   DC Bias Voltage = 0V
*   Small Signal Operation
*----------------------------------------------------------------------
.SUBCKT GRJ188R61C105ME11 Port1 Port2
C01 Port1 N01 7.52e-07
R01 Port1 N01 5.00e+07
L02 N01 N02 2.12e-10
R03 N02 N03 1.54e-02
C04 N03 N04 8.11e-06
R04 N03 N04 7.17e+02
C05 N04 N05 4.11e-05
R05 N04 N05 1.75e+01
C06 N05 N06 2.33e-05
R06 N05 N06 5.06e+00
C07 N06 N07 2.04e-05
R07 N06 N07 5.64e-01
C08 N07 N08 1.42e-05
R08 N07 N08 9.33e-02
C09 N08 N09 1.17e-05
R09 N08 N09 1.11e-02
L10 N09 N10 3.50e-11
R10 N09 N10 1.17e-01
L11 N10 N11 2.16e-10
R11 N10 N11 4.56e-02
C12 N11 N12 4.45e-06
L12 N11 N12 2.30e-11
R12 N11 N12 7.82e-03
C13 N12 N13 1.53e-06
L13 N12 N13 3.38e-11
R13 N12 N13 1.36e-02
C14 N13 Port2 6.50e-12
L14 N13 Port2 7.56e-11
R14 N13 Port2 1.11e+01
.ENDS GRJ188R61C105ME11
*----------------------------------------------------------------------
* SPICE Model generated by Murata Manufacturing Co., Ltd.
* Copyright(C) Murata Manufacturing Co., Ltd.
* Description :1608M(0603)/X5R(-55to85[deg])/1.00e+00[uF]/35[V]
* Murata P/N :GRJ188R6YA105KE11
* Property : C = 1.00e+00[uF]
*----------------------------------------------------------------------
* Applicable Conditions:
*   Frequency Range = 100[Hz]-6[GHz]
*   Temperature = 25 degC
*   DC Bias Voltage = 0V
*   Small Signal Operation
*----------------------------------------------------------------------
.SUBCKT GRJ188R6YA105KE11 Port1 Port2
C01 Port1 N01 8.98e-07
R01 Port1 N01 5.00e+07
L02 N01 N02 1.97e-10
R03 N02 N03 1.07e-02
C04 N03 N04 2.22e-06
R04 N03 N04 4.99e+03
C05 N04 N05 2.74e-05
R05 N04 N05 1.61e+01
C06 N05 N06 2.56e-05
R06 N05 N06 3.00e+00
C07 N06 N07 1.94e-05
R07 N06 N07 4.60e-01
C08 N07 N08 1.51e-05
R08 N07 N08 7.42e-02
C09 N08 N09 1.20e-05
R09 N08 N09 1.58e-02
L10 N09 N10 3.19e-11
R10 N09 N10 7.88e-02
L11 N10 N11 2.14e-10
R11 N10 N11 3.98e-02
C12 N11 N12 5.54e-06
L12 N11 N12 1.69e-11
R12 N11 N12 6.12e-03
C13 N12 N13 1.50e-06
L13 N12 N13 3.13e-11
R13 N12 N13 1.13e-02
C14 N13 N14 1.88e-11
L14 N13 N14 2.97e-11
R14 N13 N14 5.71e+00
C15 N14 Port2 3.99e-12
L15 N14 Port2 6.78e-11
R15 N14 Port2 6.86e+00
.ENDS GRJ188R6YA105KE11
*----------------------------------------------------------------------
* SPICE Model generated by Murata Manufacturing Co., Ltd.
* Copyright(C) Murata Manufacturing Co., Ltd.
* Description :1608M(0603)/X7R(-55to125[deg])/2.20e+00[uF]/6.3[V]
* Murata P/N :GRJ188R70J225KE11
* Property : C = 2.20e+00[uF]
*----------------------------------------------------------------------
* Applicable Conditions:
*   Frequency Range = 100[Hz]-6[GHz]
*   Temperature = 25 degC
*   DC Bias Voltage = 0V
*   Small Signal Operation
*----------------------------------------------------------------------
.SUBCKT GRJ188R70J225KE11 Port1 Port2
C01 Port1 N01 1.60e-06
R01 Port1 N01 2.27e+07
L02 N01 N02 2.00e-10
R03 N02 N03 1.41e-02
C04 N03 N04 3.17e-05
R04 N03 N04 1.68e+02
C05 N04 N05 5.65e-05
R05 N04 N05 9.52e+00
C06 N05 N06 5.33e-05
R06 N05 N06 1.43e+00
C07 N06 N07 4.56e-05
R07 N06 N07 2.22e-01
C08 N07 N08 4.05e-05
R08 N07 N08 3.50e-02
C09 N08 N09 3.62e-05
R09 N08 N09 1.02e-02
L10 N09 N10 4.14e-11
R10 N09 N10 1.13e-01
L11 N10 N11 2.49e-10
R11 N10 N11 3.62e-02
C12 N11 N12 1.90e-05
L12 N11 N12 1.26e-11
R12 N11 N12 3.92e-03
C13 N12 N13 2.79e-06
L13 N12 N13 4.95e-11
R13 N12 N13 9.65e-03
C14 N13 Port2 6.35e-12
L14 N13 Port2 7.06e-11
R14 N13 Port2 1.08e+01
.ENDS GRJ188R70J225KE11
*----------------------------------------------------------------------
* SPICE Model generated by Murata Manufacturing Co., Ltd.
* Copyright(C) Murata Manufacturing Co., Ltd.
* Description :1608M(0603)/X7R(-55to125[deg])/2.20e+00[uF]/6.3[V]
* Murata P/N :GRJ188R70J225ME11
* Property : C = 2.20e+00[uF]
*----------------------------------------------------------------------
* Applicable Conditions:
*   Frequency Range = 100[Hz]-6[GHz]
*   Temperature = 25 degC
*   DC Bias Voltage = 0V
*   Small Signal Operation
*----------------------------------------------------------------------
.SUBCKT GRJ188R70J225ME11 Port1 Port2
C01 Port1 N01 1.60e-06
R01 Port1 N01 2.27e+07
L02 N01 N02 2.00e-10
R03 N02 N03 1.41e-02
C04 N03 N04 3.17e-05
R04 N03 N04 1.68e+02
C05 N04 N05 5.65e-05
R05 N04 N05 9.52e+00
C06 N05 N06 5.33e-05
R06 N05 N06 1.43e+00
C07 N06 N07 4.56e-05
R07 N06 N07 2.22e-01
C08 N07 N08 4.05e-05
R08 N07 N08 3.50e-02
C09 N08 N09 3.62e-05
R09 N08 N09 1.02e-02
L10 N09 N10 4.14e-11
R10 N09 N10 1.13e-01
L11 N10 N11 2.49e-10
R11 N10 N11 3.62e-02
C12 N11 N12 1.90e-05
L12 N11 N12 1.26e-11
R12 N11 N12 3.92e-03
C13 N12 N13 2.79e-06
L13 N12 N13 4.95e-11
R13 N12 N13 9.65e-03
C14 N13 Port2 6.35e-12
L14 N13 Port2 7.06e-11
R14 N13 Port2 1.08e+01
.ENDS GRJ188R70J225ME11
*----------------------------------------------------------------------
* SPICE Model generated by Murata Manufacturing Co., Ltd.
* Copyright(C) Murata Manufacturing Co., Ltd.
* Description :1608M(0603)/X7R(-55to125[deg])/4.70e-01[uF]/16[V]
* Murata P/N :GRJ188R71C474KE11
* Property : C = 4.70e-01[uF]
*----------------------------------------------------------------------
* Applicable Conditions:
*   Frequency Range = 100[kHz]-6[GHz]
*   Temperature = 25 degC
*   DC Bias Voltage = 0V
*   Small Signal Operation
*----------------------------------------------------------------------
.SUBCKT GRJ188R71C474KE11 Port1 Port2
C01 Port1 N01 4.13e-07
R01 Port1 N01 1.06e+08
L02 N01 N02 1.45e-10
R03 N02 N03 3.44e-02
C04 N03 N04 2.24e-05
R04 N03 N04 8.93e-02
C05 N04 N05 3.47e-05
R05 N04 N05 4.30e-03
L06 N05 N06 2.76e-11
R06 N05 N06 1.41e-01
L07 N06 N07 1.40e-10
R07 N06 N07 5.69e-02
C08 N07 N08 8.54e-07
L08 N07 N08 6.63e-11
R08 N07 N08 1.00e-02
C09 N08 N09 5.64e-07
L09 N08 N09 4.03e-11
R09 N08 N09 1.31e-02
C10 N09 N10 6.46e-12
L10 N09 N10 8.40e-11
R10 N09 N10 1.36e+01
C11 N10 Port2 2.15e-12
L11 N10 Port2 1.25e-10
R11 N10 Port2 6.35e+01
.ENDS GRJ188R71C474KE11
*----------------------------------------------------------------------
* SPICE Model generated by Murata Manufacturing Co., Ltd.
* Copyright(C) Murata Manufacturing Co., Ltd.
* Description :1608M(0603)/X7R(-55to125[deg])/4.70e-01[uF]/16[V]
* Murata P/N :GRJ188R71C474ME11
* Property : C = 4.70e-01[uF]
*----------------------------------------------------------------------
* Applicable Conditions:
*   Frequency Range = 100[kHz]-6[GHz]
*   Temperature = 25 degC
*   DC Bias Voltage = 0V
*   Small Signal Operation
*----------------------------------------------------------------------
.SUBCKT GRJ188R71C474ME11 Port1 Port2
C01 Port1 N01 4.13e-07
R01 Port1 N01 1.06e+08
L02 N01 N02 1.45e-10
R03 N02 N03 3.44e-02
C04 N03 N04 2.24e-05
R04 N03 N04 8.93e-02
C05 N04 N05 3.47e-05
R05 N04 N05 4.30e-03
L06 N05 N06 2.76e-11
R06 N05 N06 1.41e-01
L07 N06 N07 1.40e-10
R07 N06 N07 5.69e-02
C08 N07 N08 8.54e-07
L08 N07 N08 6.63e-11
R08 N07 N08 1.00e-02
C09 N08 N09 5.64e-07
L09 N08 N09 4.03e-11
R09 N08 N09 1.31e-02
C10 N09 N10 6.46e-12
L10 N09 N10 8.40e-11
R10 N09 N10 1.36e+01
C11 N10 Port2 2.15e-12
L11 N10 Port2 1.25e-10
R11 N10 Port2 6.35e+01
.ENDS GRJ188R71C474ME11
*----------------------------------------------------------------------
* SPICE Model generated by Murata Manufacturing Co., Ltd.
* Copyright(C) Murata Manufacturing Co., Ltd.
* Description :1608M(0603)/X7R(-55to125[deg])/1.00e+00[uF]/25[V]
* Murata P/N :GRJ188R71E105KE11
* Property : C = 1.00e+00[uF]
*----------------------------------------------------------------------
* Applicable Conditions:
*   Frequency Range = 100[Hz]-6[GHz]
*   Temperature = 25 degC
*   DC Bias Voltage = 0V
*   Small Signal Operation
*----------------------------------------------------------------------
.SUBCKT GRJ188R71E105KE11 Port1 Port2
C01 Port1 N01 7.52e-07
R01 Port1 N01 5.00e+07
L02 N01 N02 2.12e-10
R03 N02 N03 1.54e-02
C04 N03 N04 8.11e-06
R04 N03 N04 7.17e+02
C05 N04 N05 4.11e-05
R05 N04 N05 1.75e+01
C06 N05 N06 2.33e-05
R06 N05 N06 5.06e+00
C07 N06 N07 2.04e-05
R07 N06 N07 5.64e-01
C08 N07 N08 1.42e-05
R08 N07 N08 9.33e-02
C09 N08 N09 1.17e-05
R09 N08 N09 1.11e-02
L10 N09 N10 3.50e-11
R10 N09 N10 1.17e-01
L11 N10 N11 2.16e-10
R11 N10 N11 4.56e-02
C12 N11 N12 4.45e-06
L12 N11 N12 2.30e-11
R12 N11 N12 7.82e-03
C13 N12 N13 1.53e-06
L13 N12 N13 3.38e-11
R13 N12 N13 1.36e-02
C14 N13 Port2 6.50e-12
L14 N13 Port2 7.56e-11
R14 N13 Port2 1.11e+01
.ENDS GRJ188R71E105KE11
*----------------------------------------------------------------------
* SPICE Model generated by Murata Manufacturing Co., Ltd.
* Copyright(C) Murata Manufacturing Co., Ltd.
* Description :1608M(0603)/X7R(-55to125[deg])/1.00e+00[uF]/25[V]
* Murata P/N :GRJ188R71E105ME11
* Property : C = 1.00e+00[uF]
*----------------------------------------------------------------------
* Applicable Conditions:
*   Frequency Range = 100[Hz]-6[GHz]
*   Temperature = 25 degC
*   DC Bias Voltage = 0V
*   Small Signal Operation
*----------------------------------------------------------------------
.SUBCKT GRJ188R71E105ME11 Port1 Port2
C01 Port1 N01 7.52e-07
R01 Port1 N01 5.00e+07
L02 N01 N02 2.12e-10
R03 N02 N03 1.54e-02
C04 N03 N04 8.11e-06
R04 N03 N04 7.17e+02
C05 N04 N05 4.11e-05
R05 N04 N05 1.75e+01
C06 N05 N06 2.33e-05
R06 N05 N06 5.06e+00
C07 N06 N07 2.04e-05
R07 N06 N07 5.64e-01
C08 N07 N08 1.42e-05
R08 N07 N08 9.33e-02
C09 N08 N09 1.17e-05
R09 N08 N09 1.11e-02
L10 N09 N10 3.50e-11
R10 N09 N10 1.17e-01
L11 N10 N11 2.16e-10
R11 N10 N11 4.56e-02
C12 N11 N12 4.45e-06
L12 N11 N12 2.30e-11
R12 N11 N12 7.82e-03
C13 N12 N13 1.53e-06
L13 N12 N13 3.38e-11
R13 N12 N13 1.36e-02
C14 N13 Port2 6.50e-12
L14 N13 Port2 7.56e-11
R14 N13 Port2 1.11e+01
.ENDS GRJ188R71E105ME11
*----------------------------------------------------------------------
* SPICE Model generated by Murata Manufacturing Co., Ltd.
* Copyright(C) Murata Manufacturing Co., Ltd.
* Description :1608M(0603)/X7R(-55to125[deg])/2.20e-01[uF]/25[V]
* Murata P/N :GRJ188R71E224KE11
* Property : C = 2.20e-01[uF]
*----------------------------------------------------------------------
* Applicable Conditions:
*   Frequency Range = 100[kHz]-6[GHz]
*   Temperature = 25 degC
*   DC Bias Voltage = 0V
*   Small Signal Operation
*----------------------------------------------------------------------
.SUBCKT GRJ188R71E224KE11 Port1 Port2
C01 Port1 N01 2.09e-07
R01 Port1 N01 2.27e+08
L02 N01 N02 2.14e-10
R03 N02 N03 2.07e-02
C04 N03 N04 1.14e-05
R04 N03 N04 2.32e-01
C05 N04 N05 1.62e-05
R05 N04 N05 1.61e-02
L06 N05 N06 1.99e-11
R06 N05 N06 9.36e-02
L07 N06 N07 1.43e-10
R07 N06 N07 6.18e-02
C08 N07 N08 9.45e-07
L08 N07 N08 2.66e-11
R08 N07 N08 1.36e-02
C09 N08 N09 3.50e-07
L09 N08 N09 3.55e-11
R09 N08 N09 2.05e-02
C10 N09 Port2 3.20e-12
L10 N09 Port2 1.19e-10
R10 N09 Port2 1.58e+01
.ENDS GRJ188R71E224KE11
*----------------------------------------------------------------------
* SPICE Model generated by Murata Manufacturing Co., Ltd.
* Copyright(C) Murata Manufacturing Co., Ltd.
* Description :1608M(0603)/X7R(-55to125[deg])/2.20e-01[uF]/25[V]
* Murata P/N :GRJ188R71E224ME11
* Property : C = 2.20e-01[uF]
*----------------------------------------------------------------------
* Applicable Conditions:
*   Frequency Range = 100[kHz]-6[GHz]
*   Temperature = 25 degC
*   DC Bias Voltage = 0V
*   Small Signal Operation
*----------------------------------------------------------------------
.SUBCKT GRJ188R71E224ME11 Port1 Port2
C01 Port1 N01 2.09e-07
R01 Port1 N01 2.27e+08
L02 N01 N02 2.14e-10
R03 N02 N03 2.07e-02
C04 N03 N04 1.14e-05
R04 N03 N04 2.32e-01
C05 N04 N05 1.62e-05
R05 N04 N05 1.61e-02
L06 N05 N06 1.99e-11
R06 N05 N06 9.36e-02
L07 N06 N07 1.43e-10
R07 N06 N07 6.18e-02
C08 N07 N08 9.45e-07
L08 N07 N08 2.66e-11
R08 N07 N08 1.36e-02
C09 N08 N09 3.50e-07
L09 N08 N09 3.55e-11
R09 N08 N09 2.05e-02
C10 N09 Port2 3.20e-12
L10 N09 Port2 1.19e-10
R10 N09 Port2 1.58e+01
.ENDS GRJ188R71E224ME11
*----------------------------------------------------------------------
* SPICE Model generated by Murata Manufacturing Co., Ltd.
* Copyright(C) Murata Manufacturing Co., Ltd.
* Description :1608M(0603)/X7R(-55to125[deg])/4.70e-02[uF]/25[V]
* Murata P/N :GRJ188R71E473KE11
* Property : C = 4.70e-02[uF]
*----------------------------------------------------------------------
* Applicable Conditions:
*   Frequency Range = 100[kHz]-6[GHz]
*   Temperature = 25 degC
*   DC Bias Voltage = 0V
*   Small Signal Operation
*----------------------------------------------------------------------
.SUBCKT GRJ188R71E473KE11 Port1 Port2
C01 Port1 N01 4.63e-08
R01 Port1 N01 1.06e+09
L02 N01 N02 6.45e-11
R03 N02 N03 9.94e-02
C04 N03 N04 2.77e-06
R04 N03 N04 2.21e+00
C05 N04 N05 6.64e-06
R05 N04 N05 2.32e-01
C06 N05 N06 4.35e-06
R06 N05 N06 7.46e-02
C07 N06 N07 6.05e-06
R07 N06 N07 1.93e-02
L08 N07 N08 1.03e-10
R08 N07 N08 7.70e-02
C09 N08 N09 3.02e-07
L09 N08 N09 1.72e-11
R09 N08 N09 1.73e-02
C10 N09 N10 8.43e-08
L10 N09 N10 2.69e-11
R10 N09 N10 3.47e-02
C11 N10 N11 4.18e-11
L11 N10 N11 1.04e-10
R11 N10 N11 1.44e+00
C12 N11 Port2 7.30e-13
L12 N11 Port2 2.32e-10
R12 N11 Port2 5.76e+01
.ENDS GRJ188R71E473KE11
*----------------------------------------------------------------------
* SPICE Model generated by Murata Manufacturing Co., Ltd.
* Copyright(C) Murata Manufacturing Co., Ltd.
* Description :1608M(0603)/X7R(-55to125[deg])/4.70e-02[uF]/25[V]
* Murata P/N :GRJ188R71E473ME11
* Property : C = 4.70e-02[uF]
*----------------------------------------------------------------------
* Applicable Conditions:
*   Frequency Range = 100[kHz]-6[GHz]
*   Temperature = 25 degC
*   DC Bias Voltage = 0V
*   Small Signal Operation
*----------------------------------------------------------------------
.SUBCKT GRJ188R71E473ME11 Port1 Port2
C01 Port1 N01 4.63e-08
R01 Port1 N01 1.06e+09
L02 N01 N02 6.45e-11
R03 N02 N03 9.94e-02
C04 N03 N04 2.77e-06
R04 N03 N04 2.21e+00
C05 N04 N05 6.64e-06
R05 N04 N05 2.32e-01
C06 N05 N06 4.35e-06
R06 N05 N06 7.46e-02
C07 N06 N07 6.05e-06
R07 N06 N07 1.93e-02
L08 N07 N08 1.03e-10
R08 N07 N08 7.70e-02
C09 N08 N09 3.02e-07
L09 N08 N09 1.72e-11
R09 N08 N09 1.73e-02
C10 N09 N10 8.43e-08
L10 N09 N10 2.69e-11
R10 N09 N10 3.47e-02
C11 N10 N11 4.18e-11
L11 N10 N11 1.04e-10
R11 N10 N11 1.44e+00
C12 N11 Port2 7.30e-13
L12 N11 Port2 2.32e-10
R12 N11 Port2 5.76e+01
.ENDS GRJ188R71E473ME11
*----------------------------------------------------------------------
* SPICE Model generated by Murata Manufacturing Co., Ltd.
* Copyright(C) Murata Manufacturing Co., Ltd.
* Description :1608M(0603)/X7R(-55to125[deg])/1.00e-03[uF]/50[V]
* Murata P/N :GRJ188R71H102KE11
* Property : C = 1.00e-03[uF]
*----------------------------------------------------------------------
* Applicable Conditions:
*   Frequency Range = 100[kHz]-6[GHz]
*   Temperature = 25 degC
*   DC Bias Voltage = 0V
*   Small Signal Operation
*----------------------------------------------------------------------
.SUBCKT GRJ188R71H102KE11 Port1 Port2
C01 Port1 N01 1.08e-09
R01 Port1 N01 2.00e+09
L02 N01 N02 9.46e-11
R03 N02 N03 3.66e-01
C04 N03 N04 2.71e-08
R04 N03 N04 2.85e+02
C05 N04 N05 1.65e-08
R05 N04 N05 1.83e+02
C06 N05 N06 1.05e-07
R06 N05 N06 1.74e+00
C07 N06 N07 5.95e-08
R07 N06 N07 6.63e-01
C08 N07 N08 1.50e-08
R08 N07 N08 2.46e-01
C09 N08 N09 1.31e-11
L09 N08 N09 2.63e-10
R09 N08 N09 5.07e+00
C10 N09 Port2 1.24e-12
L10 N09 Port2 2.34e-10
R10 N09 Port2 1.57e+01
.ENDS GRJ188R71H102KE11
*----------------------------------------------------------------------
* SPICE Model generated by Murata Manufacturing Co., Ltd.
* Copyright(C) Murata Manufacturing Co., Ltd.
* Description :1608M(0603)/X7R(-55to125[deg])/1.00e-03[uF]/50[V]
* Murata P/N :GRJ188R71H102ME11
* Property : C = 1.00e-03[uF]
*----------------------------------------------------------------------
* Applicable Conditions:
*   Frequency Range = 100[kHz]-6[GHz]
*   Temperature = 25 degC
*   DC Bias Voltage = 0V
*   Small Signal Operation
*----------------------------------------------------------------------
.SUBCKT GRJ188R71H102ME11 Port1 Port2
C01 Port1 N01 1.08e-09
R01 Port1 N01 2.00e+09
L02 N01 N02 9.46e-11
R03 N02 N03 3.66e-01
C04 N03 N04 2.71e-08
R04 N03 N04 2.85e+02
C05 N04 N05 1.65e-08
R05 N04 N05 1.83e+02
C06 N05 N06 1.05e-07
R06 N05 N06 1.74e+00
C07 N06 N07 5.95e-08
R07 N06 N07 6.63e-01
C08 N07 N08 1.50e-08
R08 N07 N08 2.46e-01
C09 N08 N09 1.31e-11
L09 N08 N09 2.63e-10
R09 N08 N09 5.07e+00
C10 N09 Port2 1.24e-12
L10 N09 Port2 2.34e-10
R10 N09 Port2 1.57e+01
.ENDS GRJ188R71H102ME11
*----------------------------------------------------------------------
* SPICE Model generated by Murata Manufacturing Co., Ltd.
* Copyright(C) Murata Manufacturing Co., Ltd.
* Description :1608M(0603)/X7R(-55to125[deg])/1.00e-02[uF]/50[V]
* Murata P/N :GRJ188R71H103KE11
* Property : C = 1.00e-02[uF]
*----------------------------------------------------------------------
* Applicable Conditions:
*   Frequency Range = 100[kHz]-6[GHz]
*   Temperature = 25 degC
*   DC Bias Voltage = 0V
*   Small Signal Operation
*----------------------------------------------------------------------
.SUBCKT GRJ188R71H103KE11 Port1 Port2
C01 Port1 N01 9.93e-09
R01 Port1 N01 2.00e+09
L02 N01 N02 1.70e-10