*----------------------------------------------------------------------
* SPICE Model generated by Murata Manufacturing Co., Ltd.
* Copyright(C) Murata Manufacturing Co., Ltd.
* Description :0603M(0201)/C0G(-55to125[deg])/1.00e-05[uF]/25[V]
* Murata P/N :GRT0335C1E100FA02
* Property : C = 1.00e-05[uF]
*----------------------------------------------------------------------
* Applicable Conditions:
*   Frequency Range = 100[MHz]-9[GHz]
*   Temperature = 25 degC
*   DC Bias Voltage = 0V
*   Small Signal Operation
*----------------------------------------------------------------------
.SUBCKT GRT0335C1E100FA02 Port1 Port2
C01 Port1 N01 1.00e-11
R01 Port1 N01 1.00e+11
L02 N01 N02 2.02e-10
R03 N02 N03 1.97e-01
L04 N03 N04 9.41e-12
R04 N03 N04 1.18e-01
C05 N04 N05 2.46e-11
L05 N04 N05 1.35e-11
R05 N04 N05 7.83e-01
C06 N05 Port2 2.08e-12
L06 N05 Port2 5.07e-11
R06 N05 Port2 1.00e+05
.ENDS GRT0335C1E100FA02
*----------------------------------------------------------------------
* SPICE Model generated by Murata Manufacturing Co., Ltd.
* Copyright(C) Murata Manufacturing Co., Ltd.
* Description :0603M(0201)/C0G(-55to125[deg])/1.00e-05[uF]/25[V]
* Murata P/N :GRT0335C1E100GA02
* Property : C = 1.00e-05[uF]
*----------------------------------------------------------------------
* Applicable Conditions:
*   Frequency Range = 100[MHz]-9[GHz]
*   Temperature = 25 degC
*   DC Bias Voltage = 0V
*   Small Signal Operation
*----------------------------------------------------------------------
.SUBCKT GRT0335C1E100GA02 Port1 Port2
C01 Port1 N01 1.00e-11
R01 Port1 N01 1.00e+11
L02 N01 N02 2.02e-10
R03 N02 N03 1.97e-01
L04 N03 N04 9.41e-12
R04 N03 N04 1.18e-01
C05 N04 N05 2.46e-11
L05 N04 N05 1.35e-11
R05 N04 N05 7.83e-01
C06 N05 Port2 2.08e-12
L06 N05 Port2 5.07e-11
R06 N05 Port2 1.00e+05
.ENDS GRT0335C1E100GA02
*----------------------------------------------------------------------
* SPICE Model generated by Murata Manufacturing Co., Ltd.
* Copyright(C) Murata Manufacturing Co., Ltd.
* Description :0603M(0201)/C0G(-55to125[deg])/1.00e-05[uF]/25[V]
* Murata P/N :GRT0335C1E100JA02
* Property : C = 1.00e-05[uF]
*----------------------------------------------------------------------
* Applicable Conditions:
*   Frequency Range = 100[MHz]-9[GHz]
*   Temperature = 25 degC
*   DC Bias Voltage = 0V
*   Small Signal Operation
*----------------------------------------------------------------------
.SUBCKT GRT0335C1E100JA02 Port1 Port2
C01 Port1 N01 1.00e-11
R01 Port1 N01 1.00e+11
L02 N01 N02 2.02e-10
R03 N02 N03 1.97e-01
L04 N03 N04 9.41e-12
R04 N03 N04 1.18e-01
C05 N04 N05 2.46e-11
L05 N04 N05 1.35e-11
R05 N04 N05 7.83e-01
C06 N05 Port2 2.08e-12
L06 N05 Port2 5.07e-11
R06 N05 Port2 1.00e+05
.ENDS GRT0335C1E100JA02
*----------------------------------------------------------------------
* SPICE Model generated by Murata Manufacturing Co., Ltd.
* Copyright(C) Murata Manufacturing Co., Ltd.
* Description :0603M(0201)/C0G(-55to125[deg])/1.00e-04[uF]/25[V]
* Murata P/N :GRT0335C1E101FA02
* Property : C = 1.00e-04[uF]
*----------------------------------------------------------------------
* Applicable Conditions:
*   Frequency Range = 100[MHz]-9[GHz]
*   Temperature = 25 degC
*   DC Bias Voltage = 0V
*   Small Signal Operation
*----------------------------------------------------------------------
.SUBCKT GRT0335C1E101FA02 Port1 Port2
C01 Port1 N01 1.00e-10
R01 Port1 N01 1.00e+11
L02 N01 N02 1.82e-10
R03 N02 N03 1.11e-01
L04 N03 N04 1.42e-11
R04 N03 N04 8.01e-02
C05 N04 N05 8.18e-10
L05 N04 N05 5.66e-12
R05 N04 N05 2.81e-01
C06 N05 N06 1.93e-10
L06 N05 N06 1.09e-11
R06 N05 N06 8.44e-01
C07 N06 N07 1.29e-11
L07 N06 N07 3.09e-11
R07 N06 N07 2.89e+00
C08 N07 Port2 7.88e-12
L08 N07 Port2 3.35e-11
R08 N07 Port2 1.00e+05
.ENDS GRT0335C1E101FA02
*----------------------------------------------------------------------
* SPICE Model generated by Murata Manufacturing Co., Ltd.
* Copyright(C) Murata Manufacturing Co., Ltd.
* Description :0603M(0201)/C0G(-55to125[deg])/1.00e-04[uF]/25[V]
* Murata P/N :GRT0335C1E101GA02
* Property : C = 1.00e-04[uF]
*----------------------------------------------------------------------
* Applicable Conditions:
*   Frequency Range = 100[MHz]-9[GHz]
*   Temperature = 25 degC
*   DC Bias Voltage = 0V
*   Small Signal Operation
*----------------------------------------------------------------------
.SUBCKT GRT0335C1E101GA02 Port1 Port2
C01 Port1 N01 1.00e-10
R01 Port1 N01 1.00e+11
L02 N01 N02 1.82e-10
R03 N02 N03 1.11e-01
L04 N03 N04 1.42e-11
R04 N03 N04 8.01e-02
C05 N04 N05 8.18e-10
L05 N04 N05 5.66e-12
R05 N04 N05 2.81e-01
C06 N05 N06 1.93e-10
L06 N05 N06 1.09e-11
R06 N05 N06 8.44e-01
C07 N06 N07 1.29e-11
L07 N06 N07 3.09e-11
R07 N06 N07 2.89e+00
C08 N07 Port2 7.88e-12
L08 N07 Port2 3.35e-11
R08 N07 Port2 1.00e+05
.ENDS GRT0335C1E101GA02
*----------------------------------------------------------------------
* SPICE Model generated by Murata Manufacturing Co., Ltd.
* Copyright(C) Murata Manufacturing Co., Ltd.
* Description :0603M(0201)/C0G(-55to125[deg])/1.00e-04[uF]/25[V]
* Murata P/N :GRT0335C1E101JA02
* Property : C = 1.00e-04[uF]
*----------------------------------------------------------------------
* Applicable Conditions:
*   Frequency Range = 100[MHz]-9[GHz]
*   Temperature = 25 degC
*   DC Bias Voltage = 0V
*   Small Signal Operation
*----------------------------------------------------------------------
.SUBCKT GRT0335C1E101JA02 Port1 Port2
C01 Port1 N01 1.00e-10
R01 Port1 N01 1.00e+11
L02 N01 N02 1.82e-10
R03 N02 N03 1.11e-01
L04 N03 N04 1.42e-11
R04 N03 N04 8.01e-02
C05 N04 N05 8.18e-10
L05 N04 N05 5.66e-12
R05 N04 N05 2.81e-01
C06 N05 N06 1.93e-10
L06 N05 N06 1.09e-11
R06 N05 N06 8.44e-01
C07 N06 N07 1.29e-11
L07 N06 N07 3.09e-11
R07 N06 N07 2.89e+00
C08 N07 Port2 7.88e-12
L08 N07 Port2 3.35e-11
R08 N07 Port2 1.00e+05
.ENDS GRT0335C1E101JA02
*----------------------------------------------------------------------
* SPICE Model generated by Murata Manufacturing Co., Ltd.
* Copyright(C) Murata Manufacturing Co., Ltd.
* Description :0603M(0201)/C0G(-55to125[deg])/1.00e-03[uF]/25[V]
* Murata P/N :GRT0335C1E102FA02
* Property : C = 1.00e-03[uF]
*----------------------------------------------------------------------
* Applicable Conditions:
*   Frequency Range = 1000[kHz]-6[GHz]
*   Temperature = 25 degC
*   DC Bias Voltage = 0V
*   Small Signal Operation
*----------------------------------------------------------------------
.SUBCKT GRT0335C1E102FA02 Port1 Port2
C01 Port1 N01 1.01e-09
R01 Port1 N01 1.00e+11
L02 N01 N02 1.77e-10
R03 N02 N03 9.26e-03
L04 N03 N04 5.22e-11
R04 N03 N04 4.33e-01
L05 N04 N05 2.70e-11
R05 N04 N05 2.70e-02
L06 N05 N06 6.87e-11
R06 N05 N06 1.01e-02
C07 N06 N07 1.77e-08
L07 N06 N07 3.33e-12
R07 N06 N07 7.40e-02
C08 N07 Port2 2.82e-09
L08 N07 Port2 1.06e-11
R08 N07 Port2 2.03e-01
.ENDS GRT0335C1E102FA02
*----------------------------------------------------------------------
* SPICE Model generated by Murata Manufacturing Co., Ltd.
* Copyright(C) Murata Manufacturing Co., Ltd.
* Description :0603M(0201)/C0G(-55to125[deg])/1.00e-03[uF]/25[V]
* Murata P/N :GRT0335C1E102GA02
* Property : C = 1.00e-03[uF]
*----------------------------------------------------------------------
* Applicable Conditions:
*   Frequency Range = 1000[kHz]-6[GHz]
*   Temperature = 25 degC
*   DC Bias Voltage = 0V
*   Small Signal Operation
*----------------------------------------------------------------------
.SUBCKT GRT0335C1E102GA02 Port1 Port2
C01 Port1 N01 1.01e-09
R01 Port1 N01 1.00e+11
L02 N01 N02 1.77e-10
R03 N02 N03 9.26e-03
L04 N03 N04 5.22e-11
R04 N03 N04 4.33e-01
L05 N04 N05 2.70e-11
R05 N04 N05 2.70e-02
L06 N05 N06 6.87e-11
R06 N05 N06 1.01e-02
C07 N06 N07 1.77e-08
L07 N06 N07 3.33e-12
R07 N06 N07 7.40e-02
C08 N07 Port2 2.82e-09
L08 N07 Port2 1.06e-11
R08 N07 Port2 2.03e-01
.ENDS GRT0335C1E102GA02
*----------------------------------------------------------------------
* SPICE Model generated by Murata Manufacturing Co., Ltd.
* Copyright(C) Murata Manufacturing Co., Ltd.
* Description :0603M(0201)/C0G(-55to125[deg])/1.00e-03[uF]/25[V]
* Murata P/N :GRT0335C1E102JA02
* Property : C = 1.00e-03[uF]
*----------------------------------------------------------------------
* Applicable Conditions:
*   Frequency Range = 1000[kHz]-6[GHz]
*   Temperature = 25 degC
*   DC Bias Voltage = 0V
*   Small Signal Operation
*----------------------------------------------------------------------
.SUBCKT GRT0335C1E102JA02 Port1 Port2
C01 Port1 N01 1.01e-09
R01 Port1 N01 1.00e+11
L02 N01 N02 1.77e-10
R03 N02 N03 9.26e-03
L04 N03 N04 5.22e-11
R04 N03 N04 4.33e-01
L05 N04 N05 2.70e-11
R05 N04 N05 2.70e-02
L06 N05 N06 6.87e-11
R06 N05 N06 1.01e-02
C07 N06 N07 1.77e-08
L07 N06 N07 3.33e-12
R07 N06 N07 7.40e-02
C08 N07 Port2 2.82e-09
L08 N07 Port2 1.06e-11
R08 N07 Port2 2.03e-01
.ENDS GRT0335C1E102JA02
*----------------------------------------------------------------------
* SPICE Model generated by Murata Manufacturing Co., Ltd.
* Copyright(C) Murata Manufacturing Co., Ltd.
* Description :0603M(0201)/C0G(-55to125[deg])/1.20e-05[uF]/25[V]
* Murata P/N :GRT0335C1E120FA02
* Property : C = 1.20e-05[uF]
*----------------------------------------------------------------------
* Applicable Conditions:
*   Frequency Range = 100[MHz]-9[GHz]
*   Temperature = 25 degC
*   DC Bias Voltage = 0V
*   Small Signal Operation
*----------------------------------------------------------------------
.SUBCKT GRT0335C1E120FA02 Port1 Port2
C01 Port1 N01 1.20e-11
R01 Port1 N01 1.00e+11
L02 N01 N02 1.97e-10
R03 N02 N03 1.88e-01
L04 N03 N04 2.04e-11
R04 N03 N04 5.14e-01
C05 N04 N05 3.25e-11
L05 N04 N05 9.75e-12
R05 N04 N05 1.15e+00
C06 N05 Port2 5.48e-12
L06 N05 Port2 3.75e-11
R06 N05 Port2 1.00e+05
.ENDS GRT0335C1E120FA02
*----------------------------------------------------------------------
* SPICE Model generated by Murata Manufacturing Co., Ltd.
* Copyright(C) Murata Manufacturing Co., Ltd.
* Description :0603M(0201)/C0G(-55to125[deg])/1.20e-05[uF]/25[V]
* Murata P/N :GRT0335C1E120GA02
* Property : C = 1.20e-05[uF]
*----------------------------------------------------------------------
* Applicable Conditions:
*   Frequency Range = 100[MHz]-9[GHz]
*   Temperature = 25 degC
*   DC Bias Voltage = 0V
*   Small Signal Operation
*----------------------------------------------------------------------
.SUBCKT GRT0335C1E120GA02 Port1 Port2
C01 Port1 N01 1.20e-11
R01 Port1 N01 1.00e+11
L02 N01 N02 1.97e-10
R03 N02 N03 1.88e-01
L04 N03 N04 2.04e-11
R04 N03 N04 5.14e-01
C05 N04 N05 3.25e-11
L05 N04 N05 9.75e-12
R05 N04 N05 1.15e+00
C06 N05 Port2 5.48e-12
L06 N05 Port2 3.75e-11
R06 N05 Port2 1.00e+05
.ENDS GRT0335C1E120GA02
*----------------------------------------------------------------------
* SPICE Model generated by Murata Manufacturing Co., Ltd.
* Copyright(C) Murata Manufacturing Co., Ltd.
* Description :0603M(0201)/C0G(-55to125[deg])/1.20e-05[uF]/25[V]
* Murata P/N :GRT0335C1E120JA02
* Property : C = 1.20e-05[uF]
*----------------------------------------------------------------------
* Applicable Conditions:
*   Frequency Range = 100[MHz]-9[GHz]
*   Temperature = 25 degC
*   DC Bias Voltage = 0V
*   Small Signal Operation
*----------------------------------------------------------------------
.SUBCKT GRT0335C1E120JA02 Port1 Port2
C01 Port1 N01 1.20e-11
R01 Port1 N01 1.00e+11
L02 N01 N02 1.97e-10
R03 N02 N03 1.88e-01
L04 N03 N04 2.04e-11
R04 N03 N04 5.14e-01
C05 N04 N05 3.25e-11
L05 N04 N05 9.75e-12
R05 N04 N05 1.15e+00
C06 N05 Port2 5.48e-12
L06 N05 Port2 3.75e-11
R06 N05 Port2 1.00e+05
.ENDS GRT0335C1E120JA02
*----------------------------------------------------------------------
* SPICE Model generated by Murata Manufacturing Co., Ltd.
* Copyright(C) Murata Manufacturing Co., Ltd.
* Description :0603M(0201)/C0G(-55to125[deg])/1.50e-05[uF]/25[V]
* Murata P/N :GRT0335C1E150FA02
* Property : C = 1.50e-05[uF]
*----------------------------------------------------------------------
* Applicable Conditions:
*   Frequency Range = 100[MHz]-9[GHz]
*   Temperature = 25 degC
*   DC Bias Voltage = 0V
*   Small Signal Operation
*----------------------------------------------------------------------
.SUBCKT GRT0335C1E150FA02 Port1 Port2
C01 Port1 N01 1.50e-11
R01 Port1 N01 1.00e+11
L02 N01 N02 1.66e-10
R03 N02 N03 1.78e-01
L04 N03 N04 1.48e-11
R04 N03 N04 2.88e-01
C05 N04 N05 1.08e-11
L05 N04 N05 2.93e-11
R05 N04 N05 4.87e+00
C06 N05 Port2 4.90e-12
L06 N05 Port2 5.39e-11
R06 N05 Port2 1.00e+05
.ENDS GRT0335C1E150FA02
*----------------------------------------------------------------------
* SPICE Model generated by Murata Manufacturing Co., Ltd.
* Copyright(C) Murata Manufacturing Co., Ltd.
* Description :0603M(0201)/C0G(-55to125[deg])/1.50e-05[uF]/25[V]
* Murata P/N :GRT0335C1E150GA02
* Property : C = 1.50e-05[uF]
*----------------------------------------------------------------------
* Applicable Conditions:
*   Frequency Range = 100[MHz]-9[GHz]
*   Temperature = 25 degC
*   DC Bias Voltage = 0V
*   Small Signal Operation
*----------------------------------------------------------------------
.SUBCKT GRT0335C1E150GA02 Port1 Port2
C01 Port1 N01 1.50e-11
R01 Port1 N01 1.00e+11
L02 N01 N02 1.66e-10
R03 N02 N03 1.78e-01
L04 N03 N04 1.48e-11
R04 N03 N04 2.88e-01
C05 N04 N05 1.08e-11
L05 N04 N05 2.93e-11
R05 N04 N05 4.87e+00
C06 N05 Port2 4.90e-12
L06 N05 Port2 5.39e-11
R06 N05 Port2 1.00e+05
.ENDS GRT0335C1E150GA02
*----------------------------------------------------------------------
* SPICE Model generated by Murata Manufacturing Co., Ltd.
* Copyright(C) Murata Manufacturing Co., Ltd.
* Description :0603M(0201)/C0G(-55to125[deg])/1.50e-05[uF]/25[V]
* Murata P/N :GRT0335C1E150JA02
* Property : C = 1.50e-05[uF]
*----------------------------------------------------------------------
* Applicable Conditions:
*   Frequency Range = 100[MHz]-9[GHz]
*   Temperature = 25 degC
*   DC Bias Voltage = 0V
*   Small Signal Operation
*----------------------------------------------------------------------
.SUBCKT GRT0335C1E150JA02 Port1 Port2
C01 Port1 N01 1.50e-11
R01 Port1 N01 1.00e+11
L02 N01 N02 1.66e-10
R03 N02 N03 1.78e-01
L04 N03 N04 1.48e-11
R04 N03 N04 2.88e-01
C05 N04 N05 1.08e-11
L05 N04 N05 2.93e-11
R05 N04 N05 4.87e+00
C06 N05 Port2 4.90e-12
L06 N05 Port2 5.39e-11
R06 N05 Port2 1.00e+05
.ENDS GRT0335C1E150JA02
*----------------------------------------------------------------------
* SPICE Model generated by Murata Manufacturing Co., Ltd.
* Copyright(C) Murata Manufacturing Co., Ltd.
* Description :0603M(0201)/C0G(-55to125[deg])/1.50e-04[uF]/25[V]
* Murata P/N :GRT0335C1E151FA02
* Property : C = 1.50e-04[uF]
*----------------------------------------------------------------------
* Applicable Conditions:
*   Frequency Range = 100[MHz]-9[GHz]
*   Temperature = 25 degC
*   DC Bias Voltage = 0V
*   Small Signal Operation
*----------------------------------------------------------------------
.SUBCKT GRT0335C1E151FA02 Port1 Port2
C01 Port1 N01 1.50e-10
R01 Port1 N01 1.00e+11
L02 N01 N02 1.97e-10
R03 N02 N03 9.12e-02
L04 N03 N04 2.50e-11
R04 N03 N04 7.73e-01
C05 N04 N05 1.16e-09
L05 N04 N05 6.03e-12
R05 N04 N05 1.98e-01
C06 N05 N06 3.43e-10
L06 N05 N06 8.69e-12
R06 N05 N06 4.90e-01
C07 N06 Port2 2.32e-11
L07 N06 Port2 1.35e-11
R07 N06 Port2 4.15e+00
.ENDS GRT0335C1E151FA02
*----------------------------------------------------------------------
* SPICE Model generated by Murata Manufacturing Co., Ltd.
* Copyright(C) Murata Manufacturing Co., Ltd.
* Description :0603M(0201)/C0G(-55to125[deg])/1.50e-04[uF]/25[V]
* Murata P/N :GRT0335C1E151GA02
* Property : C = 1.50e-04[uF]
*----------------------------------------------------------------------
* Applicable Conditions:
*   Frequency Range = 100[MHz]-9[GHz]
*   Temperature = 25 degC
*   DC Bias Voltage = 0V
*   Small Signal Operation
*----------------------------------------------------------------------
.SUBCKT GRT0335C1E151GA02 Port1 Port2
C01 Port1 N01 1.50e-10
R01 Port1 N01 1.00e+11
L02 N01 N02 1.97e-10
R03 N02 N03 9.12e-02
L04 N03 N04 2.50e-11
R04 N03 N04 7.73e-01
C05 N04 N05 1.16e-09
L05 N04 N05 6.03e-12
R05 N04 N05 1.98e-01
C06 N05 N06 3.43e-10
L06 N05 N06 8.69e-12
R06 N05 N06 4.90e-01
C07 N06 Port2 2.32e-11
L07 N06 Port2 1.35e-11
R07 N06 Port2 4.15e+00
.ENDS GRT0335C1E151GA02
*----------------------------------------------------------------------
* SPICE Model generated by Murata Manufacturing Co., Ltd.
* Copyright(C) Murata Manufacturing Co., Ltd.
* Description :0603M(0201)/C0G(-55to125[deg])/1.50e-04[uF]/25[V]
* Murata P/N :GRT0335C1E151JA02
* Property : C = 1.50e-04[uF]
*----------------------------------------------------------------------
* Applicable Conditions:
*   Frequency Range = 100[MHz]-9[GHz]
*   Temperature = 25 degC
*   DC Bias Voltage = 0V
*   Small Signal Operation
*----------------------------------------------------------------------
.SUBCKT GRT0335C1E151JA02 Port1 Port2
C01 Port1 N01 1.50e-10
R01 Port1 N01 1.00e+11
L02 N01 N02 1.97e-10
R03 N02 N03 9.12e-02
L04 N03 N04 2.50e-11
R04 N03 N04 7.73e-01
C05 N04 N05 1.16e-09
L05 N04 N05 6.03e-12
R05 N04 N05 1.98e-01
C06 N05 N06 3.43e-10
L06 N05 N06 8.69e-12
R06 N05 N06 4.90e-01
C07 N06 Port2 2.32e-11
L07 N06 Port2 1.35e-11
R07 N06 Port2 4.15e+00
.ENDS GRT0335C1E151JA02
*----------------------------------------------------------------------
* SPICE Model generated by Murata Manufacturing Co., Ltd.
* Copyright(C) Murata Manufacturing Co., Ltd.
* Description :0603M(0201)/C0G(-55to125[deg])/1.80e-05[uF]/25[V]
* Murata P/N :GRT0335C1E180FA02
* Property : C = 1.80e-05[uF]
*----------------------------------------------------------------------
* Applicable Conditions:
*   Frequency Range = 100[MHz]-9[GHz]
*   Temperature = 25 degC
*   DC Bias Voltage = 0V
*   Small Signal Operation
*----------------------------------------------------------------------
.SUBCKT GRT0335C1E180FA02 Port1 Port2
C01 Port1 N01 1.80e-11
R01 Port1 N01 1.00e+11
L02 N01 N02 1.63e-10
R03 N02 N03 1.59e-01
L04 N03 N04 1.17e-11
R04 N03 N04 2.21e-01
C05 N04 N05 1.61e-11
L05 N04 N05 2.37e-11
R05 N04 N05 2.56e+00
C06 N05 Port2 5.01e-12
L06 N05 Port2 4.81e-11
R06 N05 Port2 1.00e+05
.ENDS GRT0335C1E180FA02
*----------------------------------------------------------------------
* SPICE Model generated by Murata Manufacturing Co., Ltd.
* Copyright(C) Murata Manufacturing Co., Ltd.
* Description :0603M(0201)/C0G(-55to125[deg])/1.80e-05[uF]/25[V]
* Murata P/N :GRT0335C1E180GA02
* Property : C = 1.80e-05[uF]
*----------------------------------------------------------------------
* Applicable Conditions:
*   Frequency Range = 100[MHz]-9[GHz]
*   Temperature = 25 degC
*   DC Bias Voltage = 0V
*   Small Signal Operation
*----------------------------------------------------------------------
.SUBCKT GRT0335C1E180GA02 Port1 Port2
C01 Port1 N01 1.80e-11
R01 Port1 N01 1.00e+11
L02 N01 N02 1.63e-10
R03 N02 N03 1.59e-01
L04 N03 N04 1.17e-11
R04 N03 N04 2.21e-01
C05 N04 N05 1.61e-11
L05 N04 N05 2.37e-11
R05 N04 N05 2.56e+00
C06 N05 Port2 5.01e-12
L06 N05 Port2 4.81e-11
R06 N05 Port2 1.00e+05
.ENDS GRT0335C1E180GA02
*----------------------------------------------------------------------
* SPICE Model generated by Murata Manufacturing Co., Ltd.
* Copyright(C) Murata Manufacturing Co., Ltd.
* Description :0603M(0201)/C0G(-55to125[deg])/1.80e-05[uF]/25[V]
* Murata P/N :GRT0335C1E180JA02
* Property : C = 1.80e-05[uF]
*----------------------------------------------------------------------
* Applicable Conditions:
*   Frequency Range = 100[MHz]-9[GHz]
*   Temperature = 25 degC
*   DC Bias Voltage = 0V
*   Small Signal Operation
*----------------------------------------------------------------------
.SUBCKT GRT0335C1E180JA02 Port1 Port2
C01 Port1 N01 1.80e-11
R01 Port1 N01 1.00e+11
L02 N01 N02 1.63e-10
R03 N02 N03 1.59e-01
L04 N03 N04 1.17e-11
R04 N03 N04 2.21e-01
C05 N04 N05 1.61e-11
L05 N04 N05 2.37e-11
R05 N04 N05 2.56e+00
C06 N05 Port2 5.01e-12
L06 N05 Port2 4.81e-11
R06 N05 Port2 1.00e+05
.ENDS GRT0335C1E180JA02
*----------------------------------------------------------------------
* SPICE Model generated by Murata Manufacturing Co., Ltd.
* Copyright(C) Murata Manufacturing Co., Ltd.
* Description :0603M(0201)/C0G(-55to125[deg])/1.80e-04[uF]/25[V]
* Murata P/N :GRT0335C1E181FA02
* Property : C = 1.80e-04[uF]
*----------------------------------------------------------------------
* Applicable Conditions:
*   Frequency Range = 100[MHz]-9[GHz]
*   Temperature = 25 degC
*   DC Bias Voltage = 0V
*   Small Signal Operation
*----------------------------------------------------------------------
.SUBCKT GRT0335C1E181FA02 Port1 Port2
C01 Port1 N01 1.80e-10
R01 Port1 N01 1.00e+11
L02 N01 N02 1.60e-10
R03 N02 N03 7.99e-02
L04 N03 N04 3.26e-11
R04 N03 N04 1.29e+00
C05 N04 N05 1.48e-09
L05 N04 N05 5.96e-12
R05 N04 N05 2.14e-01
C06 N05 N06 3.27e-10
L06 N05 N06 1.24e-11
R06 N05 N06 4.97e-01
C07 N06 Port2 1.50e-11
L07 N06 Port2 1.90e-11
R07 N06 Port2 1.76e+01
.ENDS GRT0335C1E181FA02
*----------------------------------------------------------------------
* SPICE Model generated by Murata Manufacturing Co., Ltd.
* Copyright(C) Murata Manufacturing Co., Ltd.
* Description :0603M(0201)/C0G(-55to125[deg])/1.80e-04[uF]/25[V]
* Murata P/N :GRT0335C1E181GA02
* Property : C = 1.80e-04[uF]
*----------------------------------------------------------------------
* Applicable Conditions:
*   Frequency Range = 100[MHz]-9[GHz]
*   Temperature = 25 degC
*   DC Bias Voltage = 0V
*   Small Signal Operation
*----------------------------------------------------------------------
.SUBCKT GRT0335C1E181GA02 Port1 Port2
C01 Port1 N01 1.80e-10
R01 Port1 N01 1.00e+11
L02 N01 N02 1.60e-10
R03 N02 N03 7.99e-02
L04 N03 N04 3.26e-11
R04 N03 N04 1.29e+00
C05 N04 N05 1.48e-09
L05 N04 N05 5.96e-12
R05 N04 N05 2.14e-01
C06 N05 N06 3.27e-10
L06 N05 N06 1.24e-11
R06 N05 N06 4.97e-01
C07 N06 Port2 1.50e-11
L07 N06 Port2 1.90e-11
R07 N06 Port2 1.76e+01
.ENDS GRT0335C1E181GA02
*----------------------------------------------------------------------
* SPICE Model generated by Murata Manufacturing Co., Ltd.
* Copyright(C) Murata Manufacturing Co., Ltd.
* Description :0603M(0201)/C0G(-55to125[deg])/1.80e-04[uF]/25[V]
* Murata P/N :GRT0335C1E181JA02
* Property : C = 1.80e-04[uF]
*----------------------------------------------------------------------
* Applicable Conditions:
*   Frequency Range = 100[MHz]-9[GHz]
*   Temperature = 25 degC
*   DC Bias Voltage = 0V
*   Small Signal Operation
*----------------------------------------------------------------------
.SUBCKT GRT0335C1E181JA02 Port1 Port2
C01 Port1 N01 1.80e-10
R01 Port1 N01 1.00e+11
L02 N01 N02 1.60e-10
R03 N02 N03 7.99e-02
L04 N03 N04 3.26e-11
R04 N03 N04 1.29e+00
C05 N04 N05 1.48e-09
L05 N04 N05 5.96e-12
R05 N04 N05 2.14e-01
C06 N05 N06 3.27e-10
L06 N05 N06 1.24e-11
R06 N05 N06 4.97e-01
C07 N06 Port2 1.50e-11
L07 N06 Port2 1.90e-11
R07 N06 Port2 1.76e+01
.ENDS GRT0335C1E181JA02
*----------------------------------------------------------------------
* SPICE Model generated by Murata Manufacturing Co., Ltd.
* Copyright(C) Murata Manufacturing Co., Ltd.
* Description :0603M(0201)/C0G(-55to125[deg])/1.00e-06[uF]/25[V]
* Murata P/N :GRT0335C1E1R0CA02
* Property : C = 1.00e-06[uF]
*----------------------------------------------------------------------
* Applicable Conditions:
*   Frequency Range = 100[MHz]-20[GHz]
*   Temperature = 25 degC
*   DC Bias Voltage = 0V
*   Small Signal Operation
*----------------------------------------------------------------------
.SUBCKT GRT0335C1E1R0CA02 Port1 Port2
C01 Port1 N01 1.00e-12
R01 Port1 N01 1.00e+11
L02 N01 N02 2.64e-10
R03 N02 N03 7.56e-01
C04 N03 N04 4.63e-12
L04 N03 N04 1.01e-11
R04 N03 N04 5.09e+00
C05 N04 Port2 9.70e-13
L05 N04 Port2 4.20e-11
R05 N04 Port2 1.00e+08
.ENDS GRT0335C1E1R0CA02
*----------------------------------------------------------------------
* SPICE Model generated by Murata Manufacturing Co., Ltd.
* Copyright(C) Murata Manufacturing Co., Ltd.
* Description :0603M(0201)/C0G(-55to125[deg])/2.20e-05[uF]/25[V]
* Murata P/N :GRT0335C1E220FA02
* Property : C = 2.20e-05[uF]
*----------------------------------------------------------------------
* Applicable Conditions:
*   Frequency Range = 100[MHz]-9[GHz]
*   Temperature = 25 degC
*   DC Bias Voltage = 0V
*   Small Signal Operation
*----------------------------------------------------------------------
.SUBCKT GRT0335C1E220FA02 Port1 Port2
C01 Port1 N01 2.20e-11
R01 Port1 N01 1.00e+11
L02 N01 N02 2.00e-10
R03 N02 N03 1.48e-01
L04 N03 N04 1.54e-11
R04 N03 N04 2.91e-01
C05 N04 Port2 1.14e-11
L05 N04 Port2 3.02e-11
R05 N04 Port2 4.56e+00
.ENDS GRT0335C1E220FA02
*----------------------------------------------------------------------
* SPICE Model generated by Murata Manufacturing Co., Ltd.
* Copyright(C) Murata Manufacturing Co., Ltd.
* Description :0603M(0201)/C0G(-55to125[deg])/2.20e-05[uF]/25[V]
* Murata P/N :GRT0335C1E220GA02
* Property : C = 2.20e-05[uF]
*----------------------------------------------------------------------
* Applicable Conditions:
*   Frequency Range = 100[MHz]-9[GHz]
*   Temperature = 25 degC
*   DC Bias Voltage = 0V
*   Small Signal Operation
*----------------------------------------------------------------------
.SUBCKT GRT0335C1E220GA02 Port1 Port2
C01 Port1 N01 2.20e-11
R01 Port1 N01 1.00e+11
L02 N01 N02 2.00e-10
R03 N02 N03 1.48e-01
L04 N03 N04 1.54e-11
R04 N03 N04 2.91e-01
C05 N04 Port2 1.14e-11
L05 N04 Port2 3.02e-11
R05 N04 Port2 4.56e+00
.ENDS GRT0335C1E220GA02
*----------------------------------------------------------------------
* SPICE Model generated by Murata Manufacturing Co., Ltd.
* Copyright(C) Murata Manufacturing Co., Ltd.
* Description :0603M(0201)/C0G(-55to125[deg])/2.20e-05[uF]/25[V]
* Murata P/N :GRT0335C1E220JA02
* Property : C = 2.20e-05[uF]
*----------------------------------------------------------------------
* Applicable Conditions:
*   Frequency Range = 100[MHz]-9[GHz]
*   Temperature = 25 degC
*   DC Bias Voltage = 0V
*   Small Signal Operation
*----------------------------------------------------------------------
.SUBCKT GRT0335C1E220JA02 Port1 Port2
C01 Port1 N01 2.20e-11
R01 Port1 N01 1.00e+11
L02 N01 N02 2.00e-10
R03 N02 N03 1.48e-01
L04 N03 N04 1.54e-11
R04 N03 N04 2.91e-01
C05 N04 Port2 1.14e-11
L05 N04 Port2 3.02e-11
R05 N04 Port2 4.56e+00
.ENDS GRT0335C1E220JA02
*----------------------------------------------------------------------
* SPICE Model generated by Murata Manufacturing Co., Ltd.
* Copyright(C) Murata Manufacturing Co., Ltd.
* Description :0603M(0201)/C0G(-55to125[deg])/2.20e-04[uF]/25[V]
* Murata P/N :GRT0335C1E221FA02
* Property : C = 2.20e-04[uF]
*----------------------------------------------------------------------
* Applicable Conditions:
*   Frequency Range = 100[MHz]-9[GHz]
*   Temperature = 25 degC
*   DC Bias Voltage = 0V
*   Small Signal Operation
*----------------------------------------------------------------------
.SUBCKT GRT0335C1E221FA02 Port1 Port2
C01 Port1 N01 2.20e-10
R01 Port1 N01 1.00e+11
L02 N01 N02 1.81e-10
R03 N02 N03 7.29e-02
L04 N03 N04 3.30e-11
R04 N03 N04 6.97e-01
C05 N04 N05 2.42e-09
L05 N04 N05 4.73e-12
R05 N04 N05 2.24e-01
C06 N05 N06 4.53e-10
L06 N05 N06 1.18e-11
R06 N05 N06 4.96e-01
C07 N06 Port2 1.44e-10
L07 N06 Port2 2.06e-12
R07 N06 Port2 3.58e-01
.ENDS GRT0335C1E221FA02
*----------------------------------------------------------------------
* SPICE Model generated by Murata Manufacturing Co., Ltd.
* Copyright(C) Murata Manufacturing Co., Ltd.
* Description :0603M(0201)/C0G(-55to125[deg])/2.20e-04[uF]/25[V]
* Murata P/N :GRT0335C1E221GA02
* Property : C = 2.20e-04[uF]
*----------------------------------------------------------------------
* Applicable Conditions:
*   Frequency Range = 100[MHz]-9[GHz]
*   Temperature = 25 degC
*   DC Bias Voltage = 0V
*   Small Signal Operation
*----------------------------------------------------------------------
.SUBCKT GRT0335C1E221GA02 Port1 Port2
C01 Port1 N01 2.20e-10
R01 Port1 N01 1.00e+11
L02 N01 N02 1.81e-10
R03 N02 N03 7.29e-02
L04 N03 N04 3.30e-11
R04 N03 N04 6.97e-01
C05 N04 N05 2.42e-09
L05 N04 N05 4.73e-12
R05 N04 N05 2.24e-01
C06 N05 N06 4.53e-10
L06 N05 N06 1.18e-11
R06 N05 N06 4.96e-01
C07 N06 Port2 1.44e-10
L07 N06 Port2 2.06e-12
R07 N06 Port2 3.58e-01
.ENDS GRT0335C1E221GA02
*----------------------------------------------------------------------
* SPICE Model generated by Murata Manufacturing Co., Ltd.
* Copyright(C) Murata Manufacturing Co., Ltd.
* Description :0603M(0201)/C0G(-55to125[deg])/2.20e-04[uF]/25[V]
* Murata P/N :GRT0335C1E221JA02
* Property : C = 2.20e-04[uF]
*----------------------------------------------------------------------
* Applicable Conditions:
*   Frequency Range = 100[MHz]-9[GHz]
*   Temperature = 25 degC
*   DC Bias Voltage = 0V
*   Small Signal Operation
*----------------------------------------------------------------------
.SUBCKT GRT0335C1E221JA02 Port1 Port2
C01 Port1 N01 2.20e-10
R01 Port1 N01 1.00e+11
L02 N01 N02 1.81e-10
R03 N02 N03 7.29e-02
L04 N03 N04 3.30e-11
R04 N03 N04 6.97e-01
C05 N04 N05 2.42e-09
L05 N04 N05 4.73e-12
R05 N04 N05 2.24e-01
C06 N05 N06 4.53e-10
L06 N05 N06 1.18e-11
R06 N05 N06 4.96e-01
C07 N06 Port2 1.44e-10
L07 N06 Port2 2.06e-12
R07 N06 Port2 3.58e-01
.ENDS GRT0335C1E221JA02
*----------------------------------------------------------------------
* SPICE Model generated by Murata Manufacturing Co., Ltd.
* Copyright(C) Murata Manufacturing Co., Ltd.
* Description :0603M(0201)/C0G(-55to125[deg])/2.70e-05[uF]/25[V]
* Murata P/N :GRT0335C1E270FA02
* Property : C = 2.70e-05[uF]
*----------------------------------------------------------------------
* Applicable Conditions:
*   Frequency Range = 100[MHz]-9[GHz]
*   Temperature = 25 degC
*   DC Bias Voltage = 0V
*   Small Signal Operation
*----------------------------------------------------------------------
.SUBCKT GRT0335C1E270FA02 Port1 Port2
C01 Port1 N01 2.70e-11
R01 Port1 N01 1.00e+11
L02 N01 N02 1.44e-10
R03 N02 N03 1.49e-01
L04 N03 N04 1.21e-11
R04 N03 N04 2.27e-01