*----------------------------------------------------------------------
* SPICE Model generated by Murata Manufacturing Co., Ltd.
* Copyright(C) Murata Manufacturing Co., Ltd.
* Description :1005M(0402)/CH(-55to125[deg])/1.00e-05[uF]/50[V]
* Murata P/N :GXM1552C1H100JA02
* Property : C = 1.00e-05[uF]
*----------------------------------------------------------------------
* Applicable Conditions:
*   Frequency Range = 100[MHz]-9[GHz]
*   Temperature = 25 degC
*   DC Bias Voltage = 0V
*   Small Signal Operation
*----------------------------------------------------------------------
.SUBCKT GXM1552C1H100JA02 Port1 Port2
C01 Port1 N01 1.00e-11
R01 Port1 N01 1.00e+10
L02 N01 N02 5.81e-11
R03 N02 N03 1.40e-01
L04 N03 N04 2.26e-11
R04 N03 N04 2.35e-01
C05 N04 N05 2.76e-11
L05 N04 N05 2.92e-11
R05 N04 N05 7.28e+00
C06 N05 N06 1.06e-11
L06 N05 N06 3.15e-11
R06 N05 N06 5.68e+00
C07 N06 Port2 9.28e-13
L07 N06 Port2 2.13e-10
R07 N06 Port2 1.00e+05
.ENDS GXM1552C1H100JA02
*----------------------------------------------------------------------
* SPICE Model generated by Murata Manufacturing Co., Ltd.
* Copyright(C) Murata Manufacturing Co., Ltd.
* Description :1005M(0402)/CH(-55to125[deg])/1.00e-04[uF]/50[V]
* Murata P/N :GXM1552C1H101JA02
* Property : C = 1.00e-04[uF]
*----------------------------------------------------------------------
* Applicable Conditions:
*   Frequency Range = 100[MHz]-9[GHz]
*   Temperature = 25 degC
*   DC Bias Voltage = 0V
*   Small Signal Operation
*----------------------------------------------------------------------
.SUBCKT GXM1552C1H101JA02 Port1 Port2
C01 Port1 N01 1.00e-10
R01 Port1 N01 1.00e+10
L02 N01 N02 2.12e-10
R03 N02 N03 1.10e-01
L04 N03 N04 7.82e-12
R04 N03 N04 3.42e-02
C05 N04 N05 8.96e-10
L05 N04 N05 7.70e-12
R05 N04 N05 3.52e-01
C06 N05 N06 1.74e-10
L06 N05 N06 1.63e-11
R06 N05 N06 1.02e+00
C07 N06 N07 7.08e-12
L07 N06 N07 3.54e-11
R07 N06 N07 1.70e+00
C08 N07 Port2 2.12e-12
L08 N07 Port2 9.97e-11
R08 N07 Port2 1.00e+05
.ENDS GXM1552C1H101JA02
*----------------------------------------------------------------------
* SPICE Model generated by Murata Manufacturing Co., Ltd.
* Copyright(C) Murata Manufacturing Co., Ltd.
* Description :1005M(0402)/CH(-55to125[deg])/1.00e-03[uF]/50[V]
* Murata P/N :GXM1552C1H102JA02
* Property : C = 1.00e-03[uF]
*----------------------------------------------------------------------
* Applicable Conditions:
*   Frequency Range = 1000[kHz]-6[GHz]
*   Temperature = 25 degC
*   DC Bias Voltage = 0V
*   Small Signal Operation
*----------------------------------------------------------------------
.SUBCKT GXM1552C1H102JA02 Port1 Port2
C01 Port1 N01 9.93e-10
R01 Port1 N01 1.00e+10
L02 N01 N02 9.26e-11
R03 N02 N03 1.46e-02
L04 N03 N04 1.36e-10
R04 N03 N04 2.95e-02
C05 N04 N05 5.86e-09
L05 N04 N05 1.40e-11
R05 N04 N05 2.91e-01
C06 N05 N06 1.79e-09
L06 N05 N06 2.06e-11
R06 N05 N06 4.45e-01
C07 N06 N07 2.01e-12
L07 N06 N07 1.29e-10
R07 N06 N07 1.00e+05
C08 N07 Port2 6.84e-13
L08 N07 Port2 6.98e-11
R08 N07 Port2 9.47e-01
.ENDS GXM1552C1H102JA02
*----------------------------------------------------------------------
* SPICE Model generated by Murata Manufacturing Co., Ltd.
* Copyright(C) Murata Manufacturing Co., Ltd.
* Description :1005M(0402)/CH(-55to125[deg])/1.20e-05[uF]/50[V]
* Murata P/N :GXM1552C1H120JA02
* Property : C = 1.20e-05[uF]
*----------------------------------------------------------------------
* Applicable Conditions:
*   Frequency Range = 100[MHz]-9[GHz]
*   Temperature = 25 degC
*   DC Bias Voltage = 0V
*   Small Signal Operation
*----------------------------------------------------------------------
.SUBCKT GXM1552C1H120JA02 Port1 Port2
C01 Port1 N01 1.20e-11
R01 Port1 N01 1.00e+10
L02 N01 N02 9.00e-11
R03 N02 N03 1.20e-01
L04 N03 N04 2.40e-11
R04 N03 N04 2.47e-01
C05 N04 N05 8.69e-11
L05 N04 N05 1.21e-11
R05 N04 N05 2.88e+00
C06 N05 N06 1.16e-11
L06 N05 N06 2.91e-11
R06 N05 N06 5.24e+00
C07 N06 Port2 1.10e-12
L07 N06 Port2 1.75e-10
R07 N06 Port2 1.00e+05
.ENDS GXM1552C1H120JA02
*----------------------------------------------------------------------
* SPICE Model generated by Murata Manufacturing Co., Ltd.
* Copyright(C) Murata Manufacturing Co., Ltd.
* Description :1005M(0402)/CH(-55to125[deg])/1.20e-04[uF]/50[V]
* Murata P/N :GXM1552C1H121JA02
* Property : C = 1.20e-04[uF]
*----------------------------------------------------------------------
* Applicable Conditions:
*   Frequency Range = 100[MHz]-9[GHz]
*   Temperature = 25 degC
*   DC Bias Voltage = 0V
*   Small Signal Operation
*----------------------------------------------------------------------
.SUBCKT GXM1552C1H121JA02 Port1 Port2
C01 Port1 N01 1.20e-10
R01 Port1 N01 1.00e+10
L02 N01 N02 5.94e-11
R03 N02 N03 1.15e-01
C04 N03 N04 1.04e-09
L04 N03 N04 8.96e-12
R04 N03 N04 5.12e-01
C05 N04 N05 2.75e-10
L05 N04 N05 1.45e-11
R05 N04 N05 1.05e+00
C06 N05 N06 5.38e-12
L06 N05 N06 5.45e-11
R06 N05 N06 1.42e+00
C07 N06 Port2 3.01e-13
L07 N06 Port2 2.43e-10
R07 N06 Port2 1.00e+05
.ENDS GXM1552C1H121JA02
*----------------------------------------------------------------------
* SPICE Model generated by Murata Manufacturing Co., Ltd.
* Copyright(C) Murata Manufacturing Co., Ltd.
* Description :1005M(0402)/CH(-55to125[deg])/1.50e-05[uF]/50[V]
* Murata P/N :GXM1552C1H150JA02
* Property : C = 1.50e-05[uF]
*----------------------------------------------------------------------
* Applicable Conditions:
*   Frequency Range = 100[MHz]-9[GHz]
*   Temperature = 25 degC
*   DC Bias Voltage = 0V
*   Small Signal Operation
*----------------------------------------------------------------------
.SUBCKT GXM1552C1H150JA02 Port1 Port2
C01 Port1 N01 1.50e-11
R01 Port1 N01 1.00e+10
L02 N01 N02 1.75e-10
R03 N02 N03 1.50e-01
L04 N03 N04 2.52e-11
R04 N03 N04 4.18e-01
C05 N04 N05 1.22e-10
L05 N04 N05 8.84e-12
R05 N04 N05 1.71e+00
C06 N05 N06 1.47e-11
L06 N05 N06 2.31e-11
R06 N05 N06 4.50e+00
C07 N06 Port2 1.37e-12
L07 N06 Port2 1.51e-10
R07 N06 Port2 1.00e+05
.ENDS GXM1552C1H150JA02
*----------------------------------------------------------------------
* SPICE Model generated by Murata Manufacturing Co., Ltd.
* Copyright(C) Murata Manufacturing Co., Ltd.
* Description :1005M(0402)/CH(-55to125[deg])/1.50e-04[uF]/50[V]
* Murata P/N :GXM1552C1H151JA02
* Property : C = 1.50e-04[uF]
*----------------------------------------------------------------------
* Applicable Conditions:
*   Frequency Range = 100[MHz]-9[GHz]
*   Temperature = 25 degC
*   DC Bias Voltage = 0V
*   Small Signal Operation
*----------------------------------------------------------------------
.SUBCKT GXM1552C1H151JA02 Port1 Port2
C01 Port1 N01 1.50e-10
R01 Port1 N01 1.00e+10
L02 N01 N02 2.01e-10
R03 N02 N03 9.06e-02
L04 N03 N04 8.02e-12
R04 N03 N04 2.56e-02
C05 N04 N05 1.23e-09
L05 N04 N05 8.59e-12
R05 N04 N05 3.37e-01
C06 N05 N06 2.99e-10
L06 N05 N06 1.49e-11
R06 N05 N06 8.69e-01
C07 N06 N07 6.81e-12
L07 N06 N07 5.02e-11
R07 N06 N07 1.48e+00
C08 N07 Port2 2.03e-12
L08 N07 Port2 1.12e-10
R08 N07 Port2 1.26e+05
.ENDS GXM1552C1H151JA02
*----------------------------------------------------------------------
* SPICE Model generated by Murata Manufacturing Co., Ltd.
* Copyright(C) Murata Manufacturing Co., Ltd.
* Description :1005M(0402)/CH(-55to125[deg])/1.80e-05[uF]/50[V]
* Murata P/N :GXM1552C1H180JA02
* Property : C = 1.80e-05[uF]
*----------------------------------------------------------------------
* Applicable Conditions:
*   Frequency Range = 100[MHz]-9[GHz]
*   Temperature = 25 degC
*   DC Bias Voltage = 0V
*   Small Signal Operation
*----------------------------------------------------------------------
.SUBCKT GXM1552C1H180JA02 Port1 Port2
C01 Port1 N01 1.80e-11
R01 Port1 N01 1.00e+10
L02 N01 N02 1.19e-10
R03 N02 N03 1.20e-01
L04 N03 N04 2.40e-11
R04 N03 N04 2.05e-01
C05 N04 N05 1.21e-10
L05 N04 N05 1.12e-11
R05 N04 N05 1.92e+00
C06 N05 N06 7.86e-12
L06 N05 N06 4.32e-11
R06 N05 N06 5.99e+00
C07 N06 Port2 1.02e-12
L07 N06 Port2 1.84e-10
R07 N06 Port2 1.17e+09
.ENDS GXM1552C1H180JA02
*----------------------------------------------------------------------
* SPICE Model generated by Murata Manufacturing Co., Ltd.
* Copyright(C) Murata Manufacturing Co., Ltd.
* Description :1005M(0402)/CH(-55to125[deg])/1.80e-04[uF]/50[V]
* Murata P/N :GXM1552C1H181JA02
* Property : C = 1.80e-04[uF]
*----------------------------------------------------------------------
* Applicable Conditions:
*   Frequency Range = 100[MHz]-9[GHz]
*   Temperature = 25 degC
*   DC Bias Voltage = 0V
*   Small Signal Operation
*----------------------------------------------------------------------
.SUBCKT GXM1552C1H181JA02 Port1 Port2
C01 Port1 N01 1.80e-10
R01 Port1 N01 1.00e+10
L02 N01 N02 2.04e-10
R03 N02 N03 7.66e-02
L04 N03 N04 3.40e-11
R04 N03 N04 1.14e+00
L05 N04 N05 2.55e-11
R05 N04 N05 4.56e-01
C06 N05 N06 2.31e-09
L06 N05 N06 6.02e-12
R06 N05 N06 3.47e-01
C07 N06 N07 3.55e-10
L07 N06 N07 1.73e-11
R07 N06 N07 8.02e-01
C08 N07 N08 8.78e-11
L08 N07 N08 4.58e-12
R08 N07 N08 9.07e-01
C09 N08 Port2 3.70e-12
L09 N08 Port2 6.56e-11
R09 N08 Port2 1.00e+05
.ENDS GXM1552C1H181JA02
*----------------------------------------------------------------------
* SPICE Model generated by Murata Manufacturing Co., Ltd.
* Copyright(C) Murata Manufacturing Co., Ltd.
* Description :1005M(0402)/CH(-55to125[deg])/2.20e-05[uF]/50[V]
* Murata P/N :GXM1552C1H220JA02
* Property : C = 2.20e-05[uF]
*----------------------------------------------------------------------
* Applicable Conditions:
*   Frequency Range = 100[MHz]-9[GHz]
*   Temperature = 25 degC
*   DC Bias Voltage = 0V
*   Small Signal Operation
*----------------------------------------------------------------------
.SUBCKT GXM1552C1H220JA02 Port1 Port2
C01 Port1 N01 2.20e-11
R01 Port1 N01 1.00e+10
L02 N01 N02 1.21e-10
R03 N02 N03 1.20e-01
L04 N03 N04 2.63e-11
R04 N03 N04 3.17e-01
C05 N04 N05 1.88e-10
L05 N04 N05 8.62e-12
R05 N04 N05 1.01e+00
C06 N05 N06 1.71e-11
L06 N05 N06 2.42e-11
R06 N05 N06 3.67e+00
C07 N06 Port2 9.64e-13
L07 N06 Port2 2.00e-10
R07 N06 Port2 1.27e+09
.ENDS GXM1552C1H220JA02
*----------------------------------------------------------------------
* SPICE Model generated by Murata Manufacturing Co., Ltd.
* Copyright(C) Murata Manufacturing Co., Ltd.
* Description :1005M(0402)/CH(-55to125[deg])/2.20e-04[uF]/50[V]
* Murata P/N :GXM1552C1H221JA02
* Property : C = 2.20e-04[uF]
*----------------------------------------------------------------------
* Applicable Conditions:
*   Frequency Range = 100[MHz]-9[GHz]
*   Temperature = 25 degC
*   DC Bias Voltage = 0V
*   Small Signal Operation
*----------------------------------------------------------------------
.SUBCKT GXM1552C1H221JA02 Port1 Port2
C01 Port1 N01 2.20e-10
R01 Port1 N01 1.00e+10
L02 N01 N02 2.72e-10
R03 N02 N03 9.00e-02
L04 N03 N04 5.37e-11
R04 N03 N04 1.06e+00
C05 N04 N05 2.16e-09
L05 N04 N05 6.41e-12
R05 N04 N05 1.87e-01
C06 N05 N06 4.14e-10
L06 N05 N06 1.36e-11
R06 N05 N06 5.70e-01
C07 N06 N07 5.54e-11
L07 N06 N07 5.97e-12
R07 N06 N07 3.61e-01
C08 N07 Port2 2.85e-12
L08 N07 Port2 8.91e-11
R08 N07 Port2 5.66e+08
.ENDS GXM1552C1H221JA02
*----------------------------------------------------------------------
* SPICE Model generated by Murata Manufacturing Co., Ltd.
* Copyright(C) Murata Manufacturing Co., Ltd.
* Description :1005M(0402)/CH(-55to125[deg])/2.70e-05[uF]/50[V]
* Murata P/N :GXM1552C1H270JA02
* Property : C = 2.70e-05[uF]
*----------------------------------------------------------------------
* Applicable Conditions:
*   Frequency Range = 100[MHz]-9[GHz]
*   Temperature = 25 degC
*   DC Bias Voltage = 0V
*   Small Signal Operation
*----------------------------------------------------------------------
.SUBCKT GXM1552C1H270JA02 Port1 Port2
C01 Port1 N01 2.70e-11
R01 Port1 N01 1.00e+10
L02 N01 N02 4.26e-11
R03 N02 N03 1.15e-01
L04 N03 N04 4.18e-11
R04 N03 N04 1.49e+00
C05 N04 N05 3.62e-10
L05 N04 N05 5.64e-12
R05 N04 N05 8.64e-01
C06 N05 N06 1.30e-10
L06 N05 N06 5.01e-12
R06 N05 N06 1.36e+00
C07 N06 N07 1.33e-11
L07 N06 N07 2.30e-11
R07 N06 N07 2.51e+00
C08 N07 Port2 6.65e-13
L08 N07 Port2 2.45e-10
R08 N07 Port2 1.00e+05
.ENDS GXM1552C1H270JA02
*----------------------------------------------------------------------
* SPICE Model generated by Murata Manufacturing Co., Ltd.
* Copyright(C) Murata Manufacturing Co., Ltd.
* Description :1005M(0402)/CH(-55to125[deg])/2.70e-04[uF]/50[V]
* Murata P/N :GXM1552C1H271JA02
* Property : C = 2.70e-04[uF]
*----------------------------------------------------------------------
* Applicable Conditions:
*   Frequency Range = 100[MHz]-9[GHz]
*   Temperature = 25 degC
*   DC Bias Voltage = 0V
*   Small Signal Operation
*----------------------------------------------------------------------
.SUBCKT GXM1552C1H271JA02 Port1 Port2
C01 Port1 N01 2.70e-10
R01 Port1 N01 1.00e+10
L02 N01 N02 1.22e-10
R03 N02 N03 8.50e-02
L04 N03 N04 5.93e-11
R04 N03 N04 1.31e+00
L05 N04 N05 3.37e-12
R05 N04 N05 8.32e-03
C06 N05 N06 4.11e-09
L06 N05 N06 4.87e-12
R06 N05 N06 1.41e-01
C07 N06 N07 6.03e-10
L07 N06 N07 1.31e-11
R07 N06 N07 4.84e-01
C08 N07 N08 2.44e-11
L08 N07 N08 1.54e-11
R08 N07 N08 3.82e+00
C09 N08 Port2 1.39e-12
L09 N08 Port2 1.79e-10
R09 N08 Port2 1.00e+05
.ENDS GXM1552C1H271JA02
*----------------------------------------------------------------------
* SPICE Model generated by Murata Manufacturing Co., Ltd.
* Copyright(C) Murata Manufacturing Co., Ltd.
* Description :1005M(0402)/CH(-55to125[deg])/3.30e-05[uF]/50[V]
* Murata P/N :GXM1552C1H330JA02
* Property : C = 3.30e-05[uF]
*----------------------------------------------------------------------
* Applicable Conditions:
*   Frequency Range = 100[MHz]-9[GHz]
*   Temperature = 25 degC
*   DC Bias Voltage = 0V
*   Small Signal Operation
*----------------------------------------------------------------------
.SUBCKT GXM1552C1H330JA02 Port1 Port2
C01 Port1 N01 3.30e-11
R01 Port1 N01 1.00e+10
L02 N01 N02 7.31e-11
R03 N02 N03 1.20e-01
L04 N03 N04 1.74e-11
R04 N03 N04 1.60e-01
C05 N04 N05 4.83e-10
L05 N04 N05 5.12e-12
R05 N04 N05 4.47e-01
C06 N05 N06 3.86e-11
L06 N05 N06 2.08e-11
R06 N05 N06 2.36e+00
C07 N06 N07 1.39e-11
L07 N06 N07 2.37e-11
R07 N06 N07 4.89e+00
C08 N07 Port2 8.18e-13
L08 N07 Port2 2.25e-10
R08 N07 Port2 1.00e+05
.ENDS GXM1552C1H330JA02
*----------------------------------------------------------------------
* SPICE Model generated by Murata Manufacturing Co., Ltd.
* Copyright(C) Murata Manufacturing Co., Ltd.
* Description :1005M(0402)/CH(-55to125[deg])/3.30e-04[uF]/50[V]
* Murata P/N :GXM1552C1H331JA02
* Property : C = 3.30e-04[uF]
*----------------------------------------------------------------------
* Applicable Conditions:
*   Frequency Range = 100[MHz]-9[GHz]
*   Temperature = 25 degC
*   DC Bias Voltage = 0V
*   Small Signal Operation
*----------------------------------------------------------------------
.SUBCKT GXM1552C1H331JA02 Port1 Port2
C01 Port1 N01 3.30e-10
R01 Port1 N01 1.00e+10
L02 N01 N02 1.56e-10
R03 N02 N03 6.98e-02
L04 N03 N04 5.69e-11
R04 N03 N04 1.05e+00
C05 N04 N05 3.07e-09
L05 N04 N05 8.22e-12
R05 N04 N05 1.95e-01
C06 N05 N06 5.91e-10
L06 N05 N06 1.82e-11
R06 N05 N06 6.02e-01
C07 N06 N07 2.17e-12
L07 N06 N07 9.96e-11
R07 N06 N07 1.00e+05
C08 N07 Port2 3.01e-12
L08 N07 Port2 5.03e-11
R08 N07 Port2 4.07e+01
.ENDS GXM1552C1H331JA02
*----------------------------------------------------------------------
* SPICE Model generated by Murata Manufacturing Co., Ltd.
* Copyright(C) Murata Manufacturing Co., Ltd.
* Description :1005M(0402)/CH(-55to125[deg])/3.90e-05[uF]/50[V]
* Murata P/N :GXM1552C1H390JA02
* Property : C = 3.90e-05[uF]
*----------------------------------------------------------------------
* Applicable Conditions:
*   Frequency Range = 100[MHz]-9[GHz]
*   Temperature = 25 degC
*   DC Bias Voltage = 0V
*   Small Signal Operation
*----------------------------------------------------------------------
.SUBCKT GXM1552C1H390JA02 Port1 Port2
C01 Port1 N01 3.90e-11
R01 Port1 N01 1.00e+10
L02 N01 N02 1.03e-10
R03 N02 N03 1.10e-01
L04 N03 N04 1.47e-11
R04 N03 N04 1.29e-01
C05 N04 N05 4.13e-10
L05 N04 N05 7.65e-12
R05 N04 N05 7.79e-01
C06 N05 N06 7.42e-11
L06 N05 N06 1.24e-11
R06 N05 N06 1.56e+00
C07 N06 N07 1.27e-11
L07 N06 N07 2.57e-11
R07 N06 N07 4.20e+00
C08 N07 Port2 7.58e-13
L08 N07 Port2 1.93e-10
R08 N07 Port2 1.00e+05
.ENDS GXM1552C1H390JA02
*----------------------------------------------------------------------
* SPICE Model generated by Murata Manufacturing Co., Ltd.
* Copyright(C) Murata Manufacturing Co., Ltd.
* Description :1005M(0402)/CH(-55to125[deg])/3.90e-04[uF]/50[V]
* Murata P/N :GXM1552C1H391JA02
* Property : C = 3.90e-04[uF]
*----------------------------------------------------------------------
* Applicable Conditions:
*   Frequency Range = 100[MHz]-9[GHz]
*   Temperature = 25 degC
*   DC Bias Voltage = 0V
*   Small Signal Operation
*----------------------------------------------------------------------
.SUBCKT GXM1552C1H391JA02 Port1 Port2
C01 Port1 N01 3.90e-10
R01 Port1 N01 1.00e+10
L02 N01 N02 1.92e-10
R03 N02 N03 6.00e-02
L04 N03 N04 6.85e-11
R04 N03 N04 7.01e-01
C05 N04 N05 7.11e-09
L05 N04 N05 4.32e-12
R05 N04 N05 1.84e-01
C06 N05 N06 1.16e-09
L06 N05 N06 1.16e-11
R06 N05 N06 4.33e-01
C07 N06 N07 3.87e-11
L07 N06 N07 1.04e-11
R07 N06 N07 1.03e+00
C08 N07 Port2 3.02e-12
L08 N07 Port2 8.02e-11
R08 N07 Port2 1.00e+05
.ENDS GXM1552C1H391JA02
*----------------------------------------------------------------------
* SPICE Model generated by Murata Manufacturing Co., Ltd.
* Copyright(C) Murata Manufacturing Co., Ltd.
* Description :1005M(0402)/CH(-55to125[deg])/4.70e-05[uF]/50[V]
* Murata P/N :GXM1552C1H470JA02
* Property : C = 4.70e-05[uF]
*----------------------------------------------------------------------
* Applicable Conditions:
*   Frequency Range = 100[MHz]-9[GHz]
*   Temperature = 25 degC
*   DC Bias Voltage = 0V
*   Small Signal Operation
*----------------------------------------------------------------------
.SUBCKT GXM1552C1H470JA02 Port1 Port2
C01 Port1 N01 4.70e-11
R01 Port1 N01 1.00e+10
L02 N01 N02 7.48e-11
R03 N02 N03 1.00e-01
L04 N03 N04 1.30e-11
R04 N03 N04 1.44e-01
C05 N04 N05 3.94e-10
L05 N04 N05 1.00e-11
R05 N04 N05 9.37e-01
C06 N05 N06 7.38e-11
L06 N05 N06 1.73e-11
R06 N05 N06 1.86e+00
C07 N06 N07 1.34e-11
L07 N06 N07 2.64e-11
R07 N06 N07 2.96e+00
C08 N07 Port2 8.21e-13
L08 N07 Port2 2.00e-10
R08 N07 Port2 1.00e+05
.ENDS GXM1552C1H470JA02
*----------------------------------------------------------------------
* SPICE Model generated by Murata Manufacturing Co., Ltd.
* Copyright(C) Murata Manufacturing Co., Ltd.
* Description :1005M(0402)/CH(-55to125[deg])/4.70e-04[uF]/50[V]
* Murata P/N :GXM1552C1H471JA02
* Property : C = 4.70e-04[uF]
*----------------------------------------------------------------------
* Applicable Conditions:
*   Frequency Range = 100[MHz]-9[GHz]
*   Temperature = 25 degC
*   DC Bias Voltage = 0V
*   Small Signal Operation
*----------------------------------------------------------------------
.SUBCKT GXM1552C1H471JA02 Port1 Port2
C01 Port1 N01 4.70e-10
R01 Port1 N01 1.00e+10
L02 N01 N02 1.78e-10
R03 N02 N03 5.20e-02
L04 N03 N04 3.64e-11
R04 N03 N04 4.09e-01
L05 N04 N05 2.96e-11
R05 N04 N05 3.72e-01
C06 N05 N06 5.30e-09
L06 N05 N06 7.26e-12
R06 N05 N06 2.25e-01
C07 N06 N07 1.09e-09
L07 N06 N07 1.61e-11
R07 N06 N07 4.96e-01
C08 N07 Port2 2.49e-12
L08 N07 Port2 8.90e-11
R08 N07 Port2 1.00e+05
.ENDS GXM1552C1H471JA02
*----------------------------------------------------------------------
* SPICE Model generated by Murata Manufacturing Co., Ltd.
* Copyright(C) Murata Manufacturing Co., Ltd.
* Description :1005M(0402)/CH(-55to125[deg])/4.00e-06[uF]/50[V]
* Murata P/N :GXM1552C1H4R0CA02
* Property : C = 4.00e-06[uF]
*----------------------------------------------------------------------
* Applicable Conditions:
*   Frequency Range = 100[MHz]-9[GHz]
*   Temperature = 25 degC
*   DC Bias Voltage = 0V
*   Small Signal Operation
*----------------------------------------------------------------------
.SUBCKT GXM1552C1H4R0CA02 Port1 Port2
C01 Port1 N01 4.00e-12
R01 Port1 N01 1.00e+10
L02 N01 N02 1.78e-10
R03 N02 N03 2.30e-01
C04 N03 Port2 1.89e-12
L04 N03 Port2 1.39e-10
R04 N03 Port2 6.00e+01
.ENDS GXM1552C1H4R0CA02
*----------------------------------------------------------------------
* SPICE Model generated by Murata Manufacturing Co., Ltd.
* Copyright(C) Murata Manufacturing Co., Ltd.
* Description :1005M(0402)/CH(-55to125[deg])/4.30e-06[uF]/50[V]
* Murata P/N :GXM1552C1H4R3CA02
* Property : C = 4.30e-06[uF]
*----------------------------------------------------------------------
* Applicable Conditions:
*   Frequency Range = 100[MHz]-9[GHz]
*   Temperature = 25 degC
*   DC Bias Voltage = 0V
*   Small Signal Operation
*----------------------------------------------------------------------
.SUBCKT GXM1552C1H4R3CA02 Port1 Port2
C01 Port1 N01 4.30e-12
R01 Port1 N01 1.00e+10
L02 N01 N02 2.53e-10
R03 N02 N03 2.25e-01
L04 N03 N04 2.45e-11
R04 N03 N04 4.53e-01
C05 N04 N05 2.43e-11
L05 N04 N05 1.46e-11
R05 N04 N05 5.70e+00
C06 N05 Port2 3.88e-12
L06 N05 Port2 5.91e-11
R06 N05 Port2 1.00e+05
.ENDS GXM1552C1H4R3CA02
*----------------------------------------------------------------------
* SPICE Model generated by Murata Manufacturing Co., Ltd.
* Copyright(C) Murata Manufacturing Co., Ltd.
* Description :1005M(0402)/CH(-55to125[deg])/4.70e-06[uF]/50[V]
* Murata P/N :GXM1552C1H4R7CA02
* Property : C = 4.70e-06[uF]
*----------------------------------------------------------------------
* Applicable Conditions:
*   Frequency Range = 100[MHz]-9[GHz]
*   Temperature = 25 degC
*   DC Bias Voltage = 0V
*   Small Signal Operation
*----------------------------------------------------------------------
.SUBCKT GXM1552C1H4R7CA02 Port1 Port2
C01 Port1 N01 4.70e-12
R01 Port1 N01 1.00e+10
L02 N01 N02 2.98e-10
R03 N02 N03 2.10e-01
L04 N03 N04 2.54e-11
R04 N03 N04 5.44e-01
C05 N04 N05 6.59e-11
L05 N04 N05 5.88e-12
R05 N04 N05 1.57e+00
C06 N05 Port2 9.88e-12
L06 N05 Port2 2.60e-11
R06 N05 Port2 1.00e+05
.ENDS GXM1552C1H4R7CA02
*----------------------------------------------------------------------
* SPICE Model generated by Murata Manufacturing Co., Ltd.
* Copyright(C) Murata Manufacturing Co., Ltd.
* Description :1005M(0402)/CH(-55to125[deg])/5.60e-05[uF]/50[V]
* Murata P/N :GXM1552C1H560JA02
* Property : C = 5.60e-05[uF]
*----------------------------------------------------------------------
* Applicable Conditions:
*   Frequency Range = 100[MHz]-9[GHz]
*   Temperature = 25 degC
*   DC Bias Voltage = 0V
*   Small Signal Operation
*----------------------------------------------------------------------
.SUBCKT GXM1552C1H560JA02 Port1 Port2
C01 Port1 N01 5.60e-11
R01 Port1 N01 1.00e+10
L02 N01 N02 1.45e-10
R03 N02 N03 1.10e-01
L04 N03 N04 1.25e-11
R04 N03 N04 1.02e-01
C05 N04 N05 4.70e-10
L05 N04 N05 8.55e-12
R05 N04 N05 7.60e-01
C06 N05 N06 8.85e-11
L06 N05 N06 1.89e-11
R06 N05 N06 1.83e+00
C07 N06 N07 9.17e-12
L07 N06 N07 3.41e-11
R07 N06 N07 3.30e+00
C08 N07 Port2 1.36e-12
L08 N07 Port2 1.33e-10
R08 N07 Port2 1.00e+05
.ENDS GXM1552C1H560JA02
*----------------------------------------------------------------------
* SPICE Model generated by Murata Manufacturing Co., Ltd.
* Copyright(C) Murata Manufacturing Co., Ltd.
* Description :1005M(0402)/CH(-55to125[deg])/5.60e-04[uF]/50[V]
* Murata P/N :GXM1552C1H561JA02
* Property : C = 5.60e-04[uF]
*----------------------------------------------------------------------
* Applicable Conditions:
*   Frequency Range = 100[MHz]-9[GHz]
*   Temperature = 25 degC
*   DC Bias Voltage = 0V
*   Small Signal Operation
*----------------------------------------------------------------------
.SUBCKT GXM1552C1H561JA02 Port1 Port2
C01 Port1 N01 5.60e-10
R01 Port1 N01 1.00e+10
L02 N01 N02 1.95e-10
R03 N02 N03 5.00e-02
L04 N03 N04 3.63e-11
R04 N03 N04 1.70e+00
L05 N04 N05 3.30e-11
R05 N04 N05 3.88e-01
C06 N05 N06 6.08e-09
L06 N05 N06 6.36e-12
R06 N05 N06 1.75e-01
C07 N06 N07 7.94e-10
L07 N06 N07 2.01e-11
R07 N06 N07 4.15e-01
C08 N07 Port2 3.66e-12
L08 N07 Port2 7.36e-11
R08 N07 Port2 1.00e+05
.ENDS GXM1552C1H561JA02
*----------------------------------------------------------------------
* SPICE Model generated by Murata Manufacturing Co., Ltd.
* Copyright(C) Murata Manufacturing Co., Ltd.
* Description :1005M(0402)/CH(-55to125[deg])/5.00e-06[uF]/50[V]
* Murata P/N :GXM1552C1H5R0CA02
* Property : C = 5.00e-06[uF]
*----------------------------------------------------------------------
* Applicable Conditions:
*   Frequency Range = 100[MHz]-9[GHz]
*   Temperature = 25 degC
*   DC Bias Voltage = 0V
*   Small Signal Operation
*----------------------------------------------------------------------
.SUBCKT GXM1552C1H5R0CA02 Port1 Port2
C01 Port1 N01 5.00e-12
R01 Port1 N01 1.00e+10
L02 N01 N02 2.95e-10
R03 N02 N03 2.10e-01
L04 N03 N04 2.04e-11
R04 N03 N04 5.60e-01
C05 N04 Port2 1.55e-11
L05 N04 Port2 2.65e-11
R05 N04 Port2 9.58e+00
.ENDS GXM1552C1H5R0CA02
*----------------------------------------------------------------------
* SPICE Model generated by Murata Manufacturing Co., Ltd.
* Copyright(C) Murata Manufacturing Co., Ltd.
* Description :1005M(0402)/CH(-55to125[deg])/5.10e-06[uF]/50[V]
* Murata P/N :GXM1552C1H5R1DA02
* Property : C = 5.10e-06[uF]
*----------------------------------------------------------------------
* Applicable Conditions:
*   Frequency Range = 100[MHz]-9[GHz]
*   Temperature = 25 degC
*   DC Bias Voltage = 0V
*   Small Signal Operation
*----------------------------------------------------------------------
.SUBCKT GXM1552C1H5R1DA02 Port1 Port2
C01 Port1 N01 5.10e-12
R01 Port1 N01 1.00e+10
L02 N01 N02 2.95e-10
R03 N02 N03 2.10e-01
L04 N03 N04 2.04e-11
R04 N03 N04 5.60e-01
C05 N04 Port2 1.55e-11
L05 N04 Port2 2.65e-11
R05 N04 Port2 9.58e+00
.ENDS GXM1552C1H5R1DA02
*----------------------------------------------------------------------
* SPICE Model generated by Murata Manufacturing Co., Ltd.
* Copyright(C) Murata Manufacturing Co., Ltd.
* Description :1005M(0402)/CH(-55to125[deg])/5.60e-06[uF]/50[V]
* Murata P/N :GXM1552C1H5R6DA02
* Property : C = 5.60e-06[uF]
*----------------------------------------------------------------------
* Applicable Conditions:
*   Frequency Range = 100[MHz]-9[GHz]
*   Temperature = 25 degC
*   DC Bias Voltage = 0V
*   Small Signal Operation
*----------------------------------------------------------------------
.SUBCKT GXM1552C1H5R6DA02 Port1 Port2
C01 Port1 N01 5.60e-12
R01 Port1 N01 1.00e+10
L02 N01 N02 2.50e-10
R03 N02 N03 2.10e-01
L04 N03 N04 1.90e-11
R04 N03 N04 3.10e-01
C05 N04 N05 1.64e-11
L05 N04 N05 2.89e-11
R05 N04 N05 1.00e+01
C06 N05 Port2 8.10e-12
L06 N05 Port2 3.25e-11
R06 N05 Port2 1.00e+05
.ENDS GXM1552C1H5R6DA02
*----------------------------------------------------------------------
* SPICE Model generated by Murata Manufacturing Co., Ltd.
* Copyright(C) Murata Manufacturing Co., Ltd.
* Description :1005M(0402)/CH(-55to125[deg])/6.80e-05[uF]/50[V]
* Murata P/N :GXM1552C1H680JA02
* Property : C = 6.80e-05[uF]
*----------------------------------------------------------------------
* Applicable Conditions:
*   Frequency Range = 100[MHz]-9[GHz]
*   Temperature = 25 degC
*   DC Bias Voltage = 0V
*   Small Signal Operation
*----------------------------------------------------------------------
.SUBCKT GXM1552C1H680JA02 Port1 Port2
C01 Port1 N01 6.80e-11
R01 Port1 N01 1.00e+10
L02 N01 N02 2.16e-10
R03 N02 N03 1.10e-01
L04 N03 N04 2.49e-11
R04 N03 N04 1.70e-01
C05 N04 N05 6.40e-10
L05 N04 N05 5.85e-12
R05 N04 N05 3.42e-01
C06 N05 N06 6.14e-11
L06 N05 N06 2.21e-11
R06 N05 N06 1.60e+00
C07 N06 N07 2.42e-11
L07 N06 N07 1.60e-11
R07 N06 N07 1.91e+00
C08 N07 Port2 1.95e-12
L08 N07 Port2 1.24e-10
R08 N07 Port2 1.00e+05
.ENDS GXM1552C1H680JA02
*----------------------------------------------------------------------
* SPICE Model generated by Murata Manufacturing Co., Ltd.
* Copyright(C) Murata Manufacturing Co., Ltd.
* Description :1005M(0402)/CH(-55to125[deg])/6.80e-04[uF]/50[V]
* Murata P/N :GXM1552C1H681JA02
* Property : C = 6.80e-04[uF]
*----------------------------------------------------------------------
* Applicable Conditions:
*   Frequency Range = 100[MHz]-9[GHz]
*   Temperature = 25 degC
*   DC Bias Voltage = 0V
*   Small Signal Operation
*----------------------------------------------------------------------
.SUBCKT GXM1552C1H681JA02 Port1 Port2
C01 Port1 N01 6.80e-10
R01 Port1 N01 1.00e+10
L02 N01 N02 8.92e-11
R03 N02 N03 5.50e-02
L04 N03 N04 9.11e-12
R04 N03 N04 8.98e-01
L05 N04 N05 4.27e-11
R05 N04 N05 7.33e-01
C06 N05 N06 4.02e-09
L06 N05 N06 1.28e-11
R06 N05 N06 2.27e-01
C07 N06 N07 1.18e-09
L07 N06 N07 1.82e-11
R07 N06 N07 4.36e-01
C08 N07 N08 1.76e-09
L08 N07 N08 4.22e-12
R08 N07 N08 1.10e-01
C09 N08 N09 7.01e-10
L09 N08 N09 1.49e-12
R09 N08 N09 5.98e-01
C10 N09 Port2 1.04e-12
L10 N09 Port2 1.94e-10
R10 N09 Port2 1.00e+05
.ENDS GXM1552C1H681JA02
*----------------------------------------------------------------------
* SPICE Model generated by Murata Manufacturing Co., Ltd.
* Copyright(C) Murata Manufacturing Co., Ltd.
* Description :1005M(0402)/CH(-55to125[deg])/6.00e-06[uF]/50[V]
* Murata P/N :GXM1552C1H6R0DA02
* Property : C = 6.00e-06[uF]
*----------------------------------------------------------------------
* Applicable Conditions:
*   Frequency Range = 100[MHz]-9[GHz]
*   Temperature = 25 degC
*   DC Bias Voltage = 0V
*   Small Signal Operation
*----------------------------------------------------------------------
.SUBCKT GXM1552C1H6R0DA02 Port1 Port2
C01 Port1 N01 6.00e-12
R01 Port1 N01 1.00e+10
L02 N01 N02 2.19e-10
R03 N02 N03 2.10e-01
L04 N03 N04 1.57e-11
R04 N03 N04 3.40e-01
C05 N04 N05 2.18e-11
L05 N04 N05 1.96e-11
R05 N04 N05 3.24e+00
C06 N05 Port2 3.96e-12
L06 N05 Port2 6.86e-11
R06 N05 Port2 1.00e+05
.ENDS GXM1552C1H6R0DA02
*----------------------------------------------------------------------
* SPICE Model generated by Murata Manufacturing Co., Ltd.
* Copyright(C) Murata Manufacturing Co., Ltd.