*----------------------------------------------------------------------
* SPICE Model generated by Murata Manufacturing Co., Ltd.
* Copyright(C) Murata Manufacturing Co., Ltd.
* Description :5750M(2220)/X7R(-55to125[deg])/1.50e+01[uF]/25[V]
* Murata P/N :KCM55LR71E156KH01
* Property : C = 1.50e+01[uF]
*----------------------------------------------------------------------
* Applicable Conditions:
*   Frequency Range = 100[Hz]-6[GHz]
*   Temperature = 25 degC
*   DC Bias Voltage = 0V
*   Small Signal Operation
*----------------------------------------------------------------------
.SUBCKT KCM55LR71E156KH01 Port1 Port2
C01 Port1 N01 1.44e-05
R01 Port1 N01 6.67e+06
L02 N01 N02 2.13e-12
R03 N02 N03 4.92e-03
C04 N03 N04 1.70e-03
R04 N03 N04 7.12e-01
C05 N04 N05 1.81e-03
R05 N04 N05 8.35e-02
C06 N05 N06 1.54e-03
R06 N05 N06 9.80e-03
L07 N06 N07 7.74e-11
R07 N06 N07 8.28e-02
L08 N07 N08 4.16e-10
R08 N07 N08 2.56e-02
L09 N08 N09 8.06e-10
R09 N08 N09 4.58e-03
C10 N09 N10 4.88e-05
L10 N09 N10 7.05e-11
R10 N09 N10 3.54e-03
C11 N10 N11 6.87e-06
L11 N10 N11 1.68e-10
R11 N10 N11 8.53e-03
C12 N11 Port2 3.00e-12
L12 N11 Port2 1.19e-09
R12 N11 Port2 5.68e+02
.ENDS KCM55LR71E156KH01
*----------------------------------------------------------------------
* SPICE Model generated by Murata Manufacturing Co., Ltd.
* Copyright(C) Murata Manufacturing Co., Ltd.
* Description :5750M(2220)/X7R(-55to125[deg])/1.00e+01[uF]/50[V]
* Murata P/N :KCM55LR71H106KH01
* Property : C = 1.00e+01[uF]
*----------------------------------------------------------------------
* Applicable Conditions:
*   Frequency Range = 100[Hz]-6[GHz]
*   Temperature = 25 degC
*   DC Bias Voltage = 0V
*   Small Signal Operation
*----------------------------------------------------------------------
.SUBCKT KCM55LR71H106KH01 Port1 Port2
C01 Port1 N01 9.83e-06
R01 Port1 N01 1.00e+07
L02 N01 N02 2.25e-10
R03 N02 N03 5.39e-03
C04 N03 N04 1.13e-03
R04 N03 N04 1.03e+00
C05 N04 N05 1.20e-03
R05 N04 N05 1.07e-01
C06 N05 N06 1.09e-03
R06 N05 N06 1.14e-02
L07 N06 N07 5.99e-12
R07 N06 N07 4.37e-01
L08 N07 N08 8.02e-11
R08 N07 N08 6.98e-02
L09 N08 N09 4.03e-10
R09 N08 N09 2.75e-02
L10 N09 N10 9.47e-10
R10 N09 N10 4.81e-03
C11 N10 N11 2.52e-05
L11 N10 N11 8.28e-11
R11 N10 N11 5.58e-03
C12 N11 N12 4.54e-06
L12 N11 N12 1.47e-10
R12 N11 N12 9.58e-03
C13 N12 Port2 3.44e-12
L13 N12 Port2 1.06e-09
R13 N12 Port2 6.19e+02
.ENDS KCM55LR71H106KH01
*----------------------------------------------------------------------
* SPICE Model generated by Murata Manufacturing Co., Ltd.
* Copyright(C) Murata Manufacturing Co., Ltd.
* Description :5750M(2220)/X7R(-55to125[deg])/4.70e+00[uF]/50[V]
* Murata P/N :KCM55LR71H475KH01
* Property : C = 4.70e+00[uF]
*----------------------------------------------------------------------
* Applicable Conditions:
*   Frequency Range = 100[Hz]-6[GHz]
*   Temperature = 25 degC
*   DC Bias Voltage = 0V
*   Small Signal Operation
*----------------------------------------------------------------------
.SUBCKT KCM55LR71H475KH01 Port1 Port2
C01 Port1 N01 4.66e-06
R01 Port1 N01 2.13e+07
L02 N01 N02 2.29e-10
R03 N02 N03 6.81e-03
C04 N03 N04 7.08e-04
R04 N03 N04 6.03e-01
C05 N04 N05 5.86e-04
R05 N04 N05 9.47e-02
C06 N05 N06 5.81e-04
R06 N05 N06 1.07e-02
L07 N06 N07 7.10e-11
R07 N06 N07 8.52e-02
L08 N07 N08 3.35e-10
R08 N07 N08 3.57e-02
L09 N08 N09 5.20e-10
R09 N08 N09 5.16e-03
C10 N09 N10 9.42e-06
L10 N09 N10 9.13e-11
R10 N09 N10 7.27e-03
C11 N10 N11 2.77e-06
L11 N10 N11 1.01e-10
R11 N10 N11 1.00e-02
C12 N11 Port2 3.52e-12
L12 N11 Port2 9.80e-10
R12 N11 Port2 4.43e+02
.ENDS KCM55LR71H475KH01
*----------------------------------------------------------------------
* SPICE Model generated by Murata Manufacturing Co., Ltd.
* Copyright(C) Murata Manufacturing Co., Ltd.
* Description :5750M(2220)/X7R(-55to125[deg])/4.70e+00[uF]/63[V]
* Murata P/N :KCM55LR71J475KH01
* Property : C = 4.70e+00[uF]
*----------------------------------------------------------------------
* Applicable Conditions:
*   Frequency Range = 100[Hz]-6[GHz]
*   Temperature = 25 degC
*   DC Bias Voltage = 0V
*   Small Signal Operation
*----------------------------------------------------------------------
.SUBCKT KCM55LR71J475KH01 Port1 Port2
C01 Port1 N01 4.80e-06
R01 Port1 N01 2.13e+07
L02 N01 N02 1.43e-11
R03 N02 N03 6.31e-03
C04 N03 N04 6.69e-04
R04 N03 N04 6.12e-01
C05 N04 N05 6.19e-04
R05 N04 N05 9.94e-02
C06 N05 N06 6.30e-04
R06 N05 N06 1.05e-02
L07 N06 N07 5.83e-11
R07 N06 N07 8.65e-02
L08 N07 N08 3.31e-10
R08 N07 N08 3.59e-02
L09 N08 N09 5.98e-10
R09 N08 N09 6.11e-03
C10 N09 N10 8.51e-06
L10 N09 N10 1.04e-10
R10 N09 N10 8.75e-03
C11 N10 N11 3.04e-06
L11 N10 N11 8.66e-11
R11 N10 N11 8.93e-03
C12 N11 Port2 3.14e-12
L12 N11 Port2 1.23e-09
R12 N11 Port2 6.11e+02
.ENDS KCM55LR71J475KH01
*----------------------------------------------------------------------
* SPICE Model generated by Murata Manufacturing Co., Ltd.
* Copyright(C) Murata Manufacturing Co., Ltd.
* Description :5750M(2220)/X7R(-55to125[deg])/4.70e+00[uF]/100[V]
* Murata P/N :KCM55LR72A475KH01
* Property : C = 4.70e+00[uF]
*----------------------------------------------------------------------
* Applicable Conditions:
*   Frequency Range = 100[Hz]-6[GHz]
*   Temperature = 25 degC
*   DC Bias Voltage = 0V
*   Small Signal Operation
*----------------------------------------------------------------------
.SUBCKT KCM55LR72A475KH01 Port1 Port2
C01 Port1 N01 4.59e-06
R01 Port1 N01 2.13e+07
L02 N01 N02 4.86e-11
R03 N02 N03 7.62e-03
C04 N03 N04 4.86e-04
R04 N03 N04 2.31e+00
C05 N04 N05 5.54e-04
R05 N04 N05 1.92e-01
C06 N05 N06 4.76e-04
R06 N05 N06 1.96e-02
L07 N06 N07 7.57e-11
R07 N06 N07 9.64e-02
L08 N07 N08 3.05e-10
R08 N07 N08 2.73e-02
L09 N08 N09 4.94e-10
R09 N08 N09 7.41e-03
C10 N09 N10 1.01e-05
L10 N09 N10 8.01e-11
R10 N09 N10 7.86e-03
C11 N10 N11 5.18e-06
L11 N10 N11 5.60e-11
R11 N10 N11 7.06e-03
C12 N11 Port2 2.99e-12
L12 N11 Port2 1.28e-09
R12 N11 Port2 7.07e+02
.ENDS KCM55LR72A475KH01
*----------------------------------------------------------------------
* SPICE Model generated by Murata Manufacturing Co., Ltd.
* Copyright(C) Murata Manufacturing Co., Ltd.
* Description :5750M(2220)/X7R(-55to125[deg])/1.00e+01[uF]/35[V]
* Murata P/N :KCM55LR7YA106KH01
* Property : C = 1.00e+01[uF]
*----------------------------------------------------------------------
* Applicable Conditions:
*   Frequency Range = 100[Hz]-6[GHz]
*   Temperature = 25 degC
*   DC Bias Voltage = 0V
*   Small Signal Operation
*----------------------------------------------------------------------
.SUBCKT KCM55LR7YA106KH01 Port1 Port2
C01 Port1 N01 9.83e-06
R01 Port1 N01 1.00e+07
L02 N01 N02 2.25e-10
R03 N02 N03 5.39e-03
C04 N03 N04 1.13e-03
R04 N03 N04 1.03e+00
C05 N04 N05 1.20e-03
R05 N04 N05 1.07e-01
C06 N05 N06 1.09e-03
R06 N05 N06 1.14e-02
L07 N06 N07 5.99e-12
R07 N06 N07 4.37e-01
L08 N07 N08 8.02e-11
R08 N07 N08 6.98e-02
L09 N08 N09 4.03e-10
R09 N08 N09 2.75e-02
L10 N09 N10 9.47e-10
R10 N09 N10 4.81e-03
C11 N10 N11 2.52e-05
L11 N10 N11 8.28e-11
R11 N10 N11 5.58e-03
C12 N11 N12 4.54e-06
L12 N11 N12 1.47e-10
R12 N11 N12 9.58e-03
C13 N12 Port2 3.44e-12
L13 N12 Port2 1.06e-09
R13 N12 Port2 6.19e+02
.ENDS KCM55LR7YA106KH01
*----------------------------------------------------------------------
* SPICE Model generated by Murata Manufacturing Co., Ltd.
* Copyright(C) Murata Manufacturing Co., Ltd.
* Description :5750M(2220)/X7R(-55to125[deg])/1.50e+01[uF]/35[V]
* Murata P/N :KCM55LR7YA156KH01
* Property : C = 1.50e+01[uF]
*----------------------------------------------------------------------
* Applicable Conditions:
*   Frequency Range = 100[Hz]-6[GHz]
*   Temperature = 25 degC
*   DC Bias Voltage = 0V
*   Small Signal Operation
*----------------------------------------------------------------------
.SUBCKT KCM55LR7YA156KH01 Port1 Port2
C01 Port1 N01 1.47e-05
R01 Port1 N01 6.67e+06
L02 N01 N02 8.98e-12
R03 N02 N03 4.87e-03
C04 N03 N04 1.85e-03
R04 N03 N04 4.13e-01
C05 N04 N05 1.42e-03
R05 N04 N05 4.92e-02
C06 N05 N06 2.11e-03
R06 N05 N06 2.80e-03
L07 N06 N07 7.78e-11
R07 N06 N07 5.88e-02
L08 N07 N08 5.61e-12
R08 N07 N08 4.50e-02
L09 N08 N09 5.11e-10
R09 N08 N09 2.60e-02
L10 N09 N10 8.38e-10
R10 N09 N10 4.10e-03
C11 N10 N11 4.90e-05
L11 N10 N11 6.76e-11
R11 N10 N11 3.03e-03
C12 N11 N12 7.54e-06
L12 N11 N12 1.57e-10
R12 N11 N12 6.19e-03
C13 N12 N13 2.91e-12
L13 N12 N13 1.22e-09
R13 N12 N13 4.39e+02
C14 N13 Port2 2.76e-11
L14 N13 Port2 7.72e-11
R14 N13 Port2 4.75e+00
.ENDS KCM55LR7YA156KH01
*----------------------------------------------------------------------
* SPICE Model generated by Murata Manufacturing Co., Ltd.
* Copyright(C) Murata Manufacturing Co., Ltd.
* Description :5750M(2220)/X7S(-55to125[deg])/4.70e+01[uF]/25[V]
* Murata P/N :KCM55QC71E476KH13
* Property : C = 4.70e+01[uF]
*----------------------------------------------------------------------
* Applicable Conditions:
*   Frequency Range = 100[Hz]-3[GHz]
*   Temperature = 25 degC
*   DC Bias Voltage = 0V
*   Small Signal Operation
*----------------------------------------------------------------------
.SUBCKT KCM55QC71E476KH13 Port1 Port2
C01 Port1 N01 4.46e-05
R01 Port1 N01 2.13e+06
L02 N01 N02 1.02e-11
R03 N02 N03 2.45e-03
C04 N03 N04 6.64e-03
R04 N03 N04 2.22e-01
C05 N04 N05 4.55e-03
R05 N04 N05 3.73e-02
C06 N05 N06 6.33e-03
R06 N05 N06 3.64e-03
L07 N06 N07 8.98e-11
R07 N06 N07 2.91e-02
L08 N07 N08 8.10e-10
R08 N07 N08 1.70e-02
L09 N08 N09 1.22e-09
R09 N08 N09 3.19e-03
C10 N09 N10 1.61e-04
L10 N09 N10 1.10e-10
R10 N09 N10 3.53e-03
C11 N10 N11 4.73e-05
L11 N10 N11 1.52e-10
R11 N10 N11 5.25e-03
C12 N11 Port2 2.50e-12
L12 N11 Port2 1.19e-09
R12 N11 Port2 3.38e+02
.ENDS KCM55QC71E476KH13
*----------------------------------------------------------------------
* SPICE Model generated by Murata Manufacturing Co., Ltd.
* Copyright(C) Murata Manufacturing Co., Ltd.
* Description :5750M(2220)/X7R(-55to125[deg])/2.20e+01[uF]/25[V]
* Murata P/N :KCM55QR71E226KH01
* Property : C = 2.20e+01[uF]
*----------------------------------------------------------------------
* Applicable Conditions:
*   Frequency Range = 100[Hz]-6[GHz]
*   Temperature = 25 degC
*   DC Bias Voltage = 0V
*   Small Signal Operation
*----------------------------------------------------------------------
.SUBCKT KCM55QR71E226KH01 Port1 Port2
C01 Port1 N01 2.13e-05
R01 Port1 N01 4.55e+06
L02 N01 N02 1.83e-11
R03 N02 N03 5.03e-03
C04 N03 N04 2.36e-03
R04 N03 N04 5.14e-01
C05 N04 N05 2.12e-03
R05 N04 N05 4.96e-02
C06 N05 N06 2.60e-03
R06 N05 N06 4.27e-03
L07 N06 N07 1.69e-11
R07 N06 N07 1.71e-01
L08 N07 N08 8.74e-11
R08 N07 N08 5.21e-02
L09 N08 N09 6.40e-10
R09 N08 N09 2.38e-02
L10 N09 N10 6.43e-10
R10 N09 N10 3.69e-03
C11 N10 N11 4.34e-05
L11 N10 N11 1.52e-10
R11 N10 N11 5.36e-03
C12 N11 N12 1.61e-05
L12 N11 N12 1.50e-10
R12 N11 N12 6.99e-03
C13 N12 Port2 3.13e-12
L13 N12 Port2 1.13e-09
R13 N12 Port2 4.68e+02
.ENDS KCM55QR71E226KH01
*----------------------------------------------------------------------
* SPICE Model generated by Murata Manufacturing Co., Ltd.
* Copyright(C) Murata Manufacturing Co., Ltd.
* Description :5750M(2220)/X7R(-55to125[deg])/3.30e+01[uF]/25[V]
* Murata P/N :KCM55QR71E336KH01
* Property : C = 3.30e+01[uF]
*----------------------------------------------------------------------
* Applicable Conditions:
*   Frequency Range = 100[Hz]-6[GHz]
*   Temperature = 25 degC
*   DC Bias Voltage = 0V
*   Small Signal Operation
*----------------------------------------------------------------------
.SUBCKT KCM55QR71E336KH01 Port1 Port2
C01 Port1 N01 3.18e-05
R01 Port1 N01 3.03e+06
L02 N01 N02 1.10e-11
R03 N02 N03 3.07e-03
C04 N03 N04 4.60e-03
R04 N03 N04 2.49e-01
C05 N04 N05 3.47e-03
R05 N04 N05 4.16e-02
C06 N05 N06 4.08e-03
R06 N05 N06 4.83e-03
L07 N06 N07 9.29e-11
R07 N06 N07 6.50e-02
L08 N07 N08 6.93e-12
R08 N07 N08 4.71e-02
L09 N08 N09 6.62e-10
R09 N08 N09 2.14e-02
L10 N09 N10 1.16e-09
R10 N09 N10 3.33e-03
C11 N10 N11 7.59e-05
L11 N10 N11 1.32e-10
R11 N10 N11 3.24e-03
C12 N11 N12 2.07e-05
L12 N11 N12 1.77e-10
R12 N11 N12 5.55e-03
C13 N12 Port2 2.68e-12
L13 N12 Port2 1.25e-09
R13 N12 Port2 4.99e+02
.ENDS KCM55QR71E336KH01
*----------------------------------------------------------------------
* SPICE Model generated by Murata Manufacturing Co., Ltd.
* Copyright(C) Murata Manufacturing Co., Ltd.
* Description :5750M(2220)/X7R(-55to125[deg])/1.00e+01[uF]/50[V]
* Murata P/N :KCM55QR71H106KH01
* Property : C = 1.00e+01[uF]
*----------------------------------------------------------------------
* Applicable Conditions:
*   Frequency Range = 100[Hz]-6[GHz]
*   Temperature = 25 degC
*   DC Bias Voltage = 0V
*   Small Signal Operation
*----------------------------------------------------------------------
.SUBCKT KCM55QR71H106KH01 Port1 Port2
C01 Port1 N01 9.79e-06
R01 Port1 N01 1.00e+07
L02 N01 N02 3.48e-11
R03 N02 N03 5.41e-03
C04 N03 N04 1.12e-03
R04 N03 N04 1.02e+00
C05 N04 N05 1.28e-03
R05 N04 N05 8.96e-02
C06 N05 N06 1.12e-03
R06 N05 N06 1.26e-02
L07 N06 N07 1.03e-11
R07 N06 N07 8.75e-02
L08 N07 N08 8.40e-11
R08 N07 N08 7.18e-02
L09 N08 N09 5.57e-10
R09 N08 N09 2.63e-02
L10 N09 N10 4.54e-10
R10 N09 N10 3.18e-03
C11 N10 N11 2.03e-05
L11 N10 N11 1.35e-10
R11 N10 N11 8.33e-03
C12 N11 N12 7.89e-06
L12 N11 N12 1.24e-10
R12 N11 N12 9.47e-03
C13 N12 Port2 2.92e-12
L13 N12 Port2 1.18e-09
R13 N12 Port2 8.80e+02
.ENDS KCM55QR71H106KH01
*----------------------------------------------------------------------
* SPICE Model generated by Murata Manufacturing Co., Ltd.
* Copyright(C) Murata Manufacturing Co., Ltd.
* Description :5750M(2220)/X7R(-55to125[deg])/1.70e+01[uF]/50[V]
* Murata P/N :KCM55QR71H176KH01
* Property : C = 1.70e+01[uF]
*----------------------------------------------------------------------
* Applicable Conditions:
*   Frequency Range = 100[Hz]-6[GHz]
*   Temperature = 25 degC
*   DC Bias Voltage = 0V
*   Small Signal Operation
*----------------------------------------------------------------------
.SUBCKT KCM55QR71H176KH01 Port1 Port2
C01 Port1 N01 1.71e-05
R01 Port1 N01 5.88e+06
L02 N01 N02 3.25e-11
R03 N02 N03 3.72e-03
C04 N03 N04 2.17e-03
R04 N03 N04 4.12e-01
C05 N04 N05 1.88e-03
R05 N04 N05 5.93e-02
C06 N05 N06 2.29e-03
R06 N05 N06 5.92e-03
L07 N06 N07 7.22e-11
R07 N06 N07 6.51e-02
L08 N07 N08 5.32e-10
R08 N07 N08 2.61e-02
L09 N08 N09 7.95e-10
R09 N08 N09 3.84e-03
C10 N09 N10 3.37e-05
L10 N09 N10 1.59e-10
R10 N09 N10 6.07e-03
C11 N10 N11 8.72e-06
L11 N10 N11 2.17e-10
R11 N10 N11 9.14e-03
C12 N11 Port2 2.90e-12
L12 N11 Port2 1.08e-09
R12 N11 Port2 1.15e+03
.ENDS KCM55QR71H176KH01
*----------------------------------------------------------------------
* SPICE Model generated by Murata Manufacturing Co., Ltd.
* Copyright(C) Murata Manufacturing Co., Ltd.
* Description :5750M(2220)/X7R(-55to125[deg])/1.00e+01[uF]/63[V]
* Murata P/N :KCM55QR71J106KH01
* Property : C = 1.00e+01[uF]
*----------------------------------------------------------------------
* Applicable Conditions:
*   Frequency Range = 100[Hz]-6[GHz]
*   Temperature = 25 degC
*   DC Bias Voltage = 0V
*   Small Signal Operation
*----------------------------------------------------------------------
.SUBCKT KCM55QR71J106KH01 Port1 Port2
C01 Port1 N01 9.79e-06
R01 Port1 N01 1.00e+07
L02 N01 N02 3.48e-11
R03 N02 N03 5.41e-03
C04 N03 N04 1.12e-03
R04 N03 N04 1.02e+00
C05 N04 N05 1.28e-03
R05 N04 N05 8.96e-02
C06 N05 N06 1.12e-03
R06 N05 N06 1.26e-02
L07 N06 N07 1.03e-11
R07 N06 N07 8.75e-02
L08 N07 N08 8.40e-11
R08 N07 N08 7.18e-02
L09 N08 N09 5.57e-10
R09 N08 N09 2.63e-02
L10 N09 N10 4.54e-10
R10 N09 N10 3.18e-03
C11 N10 N11 2.03e-05
L11 N10 N11 1.35e-10
R11 N10 N11 8.33e-03
C12 N11 N12 7.89e-06
L12 N11 N12 1.24e-10
R12 N11 N12 9.47e-03
C13 N12 Port2 2.92e-12
L13 N12 Port2 1.18e-09
R13 N12 Port2 8.80e+02
.ENDS KCM55QR71J106KH01
*----------------------------------------------------------------------
* SPICE Model generated by Murata Manufacturing Co., Ltd.
* Copyright(C) Murata Manufacturing Co., Ltd.
* Description :5750M(2220)/X7R(-55to125[deg])/1.00e+01[uF]/100[V]
* Murata P/N :KCM55QR72A106KH01
* Property : C = 1.00e+01[uF]
*----------------------------------------------------------------------
* Applicable Conditions:
*   Frequency Range = 100[Hz]-6[GHz]
*   Temperature = 25 degC
*   DC Bias Voltage = 0V
*   Small Signal Operation
*----------------------------------------------------------------------
.SUBCKT KCM55QR72A106KH01 Port1 Port2
C01 Port1 N01 9.79e-06
R01 Port1 N01 1.00e+07
L02 N01 N02 3.48e-11
R03 N02 N03 5.41e-03
C04 N03 N04 1.12e-03
R04 N03 N04 1.02e+00
C05 N04 N05 1.28e-03
R05 N04 N05 8.96e-02
C06 N05 N06 1.12e-03
R06 N05 N06 1.26e-02
L07 N06 N07 1.03e-11
R07 N06 N07 8.75e-02
L08 N07 N08 8.40e-11
R08 N07 N08 7.18e-02
L09 N08 N09 5.57e-10
R09 N08 N09 2.63e-02
L10 N09 N10 4.54e-10
R10 N09 N10 3.18e-03
C11 N10 N11 2.03e-05
L11 N10 N11 1.35e-10
R11 N10 N11 8.33e-03
C12 N11 N12 7.89e-06
L12 N11 N12 1.24e-10
R12 N11 N12 9.47e-03
C13 N12 Port2 2.92e-12
L13 N12 Port2 1.18e-09
R13 N12 Port2 8.80e+02
.ENDS KCM55QR72A106KH01
*----------------------------------------------------------------------
* SPICE Model generated by Murata Manufacturing Co., Ltd.
* Copyright(C) Murata Manufacturing Co., Ltd.
* Description :5750M(2220)/X7R(-55to125[deg])/6.80e+00[uF]/100[V]
* Murata P/N :KCM55QR72A685KH01
* Property : C = 6.80e+00[uF]
*----------------------------------------------------------------------
* Applicable Conditions:
*   Frequency Range = 100[Hz]-6[GHz]
*   Temperature = 25 degC
*   DC Bias Voltage = 0V
*   Small Signal Operation
*----------------------------------------------------------------------
.SUBCKT KCM55QR72A685KH01 Port1 Port2
C01 Port1 N01 6.45e-06
R01 Port1 N01 1.47e+07
L02 N01 N02 1.18e-11
R03 N02 N03 4.99e-03
L04 N03 N04 7.07e-11
R04 N03 N04 6.79e-02
L05 N04 N05 5.69e-12
R05 N04 N05 4.29e-02
L06 N05 N06 4.27e-10
R06 N05 N06 3.23e-02
L07 N06 N07 6.28e-10
R07 N06 N07 3.35e-03
C08 N07 N08 1.25e-05
L08 N07 N08 1.29e-10
R08 N07 N08 8.32e-03
C09 N08 N09 4.04e-06
L09 N08 N09 1.34e-10
R09 N08 N09 1.04e-02
C10 N09 Port2 2.77e-12
L10 N09 Port2 1.31e-09
R10 N09 Port2 2.90e+02
.ENDS KCM55QR72A685KH01
*----------------------------------------------------------------------
* SPICE Model generated by Murata Manufacturing Co., Ltd.
* Copyright(C) Murata Manufacturing Co., Ltd.
* Description :5750M(2220)/X7R(-55to125[deg])/1.70e+01[uF]/35[V]
* Murata P/N :KCM55QR7YA176KH01
* Property : C = 1.70e+01[uF]
*----------------------------------------------------------------------
* Applicable Conditions:
*   Frequency Range = 100[Hz]-6[GHz]
*   Temperature = 25 degC
*   DC Bias Voltage = 0V
*   Small Signal Operation
*----------------------------------------------------------------------
.SUBCKT KCM55QR7YA176KH01 Port1 Port2
C01 Port1 N01 1.68e-05
R01 Port1 N01 5.88e+06
L02 N01 N02 1.30e-11
R03 N02 N03 4.74e-03
C04 N03 N04 1.89e-03
R04 N03 N04 6.80e-01
C05 N04 N05 1.80e-03
R05 N04 N05 6.03e-02
C06 N05 N06 1.82e-03
R06 N05 N06 4.08e-03
L07 N06 N07 1.82e-11
R07 N06 N07 1.70e-01
L08 N07 N08 9.12e-11
R08 N07 N08 5.88e-02
L09 N08 N09 6.08e-10
R09 N08 N09 2.37e-02
L10 N09 N10 7.85e-10
R10 N09 N10 4.01e-03
C11 N10 N11 3.52e-05
L11 N10 N11 1.51e-10
R11 N10 N11 6.22e-03
C12 N11 N12 1.23e-05
L12 N11 N12 1.59e-10
R12 N11 N12 9.03e-03
C13 N12 Port2 2.80e-12
L13 N12 Port2 1.12e-09
R13 N12 Port2 8.88e+02
.ENDS KCM55QR7YA176KH01
*----------------------------------------------------------------------
* SPICE Model generated by Murata Manufacturing Co., Ltd.
* Copyright(C) Murata Manufacturing Co., Ltd.
* Description :5750M(2220)/X7R(-55to125[deg])/2.20e+01[uF]/35[V]
* Murata P/N :KCM55QR7YA226KH01
* Property : C = 2.20e+01[uF]
*----------------------------------------------------------------------
* Applicable Conditions:
*   Frequency Range = 100[Hz]-6[GHz]
*   Temperature = 25 degC
*   DC Bias Voltage = 0V
*   Small Signal Operation
*----------------------------------------------------------------------
.SUBCKT KCM55QR7YA226KH01 Port1 Port2
C01 Port1 N01 2.13e-05
R01 Port1 N01 4.55e+06
L02 N01 N02 1.83e-11
R03 N02 N03 5.03e-03
C04 N03 N04 2.36e-03
R04 N03 N04 5.14e-01
C05 N04 N05 2.12e-03
R05 N04 N05 4.96e-02
C06 N05 N06 2.60e-03
R06 N05 N06 4.27e-03
L07 N06 N07 1.69e-11
R07 N06 N07 1.71e-01
L08 N07 N08 8.74e-11
R08 N07 N08 5.21e-02
L09 N08 N09 6.40e-10
R09 N08 N09 2.38e-02
L10 N09 N10 6.43e-10
R10 N09 N10 3.69e-03
C11 N10 N11 4.34e-05
L11 N10 N11 1.52e-10
R11 N10 N11 5.36e-03
C12 N11 N12 1.61e-05
L12 N11 N12 1.50e-10
R12 N11 N12 6.99e-03
C13 N12 Port2 3.13e-12
L13 N12 Port2 1.13e-09
R13 N12 Port2 4.68e+02
.ENDS KCM55QR7YA226KH01
*----------------------------------------------------------------------
* SPICE Model generated by Murata Manufacturing Co., Ltd.
* Copyright(C) Murata Manufacturing Co., Ltd.
* Description :5750M(2220)/X7R(-55to125[deg])/3.30e+01[uF]/25[V]
* Murata P/N :KCM55TR71E336MH01
* Property : C = 3.30e+01[uF]
*----------------------------------------------------------------------
* Applicable Conditions:
*   Frequency Range = 100[Hz]-6[GHz]
*   Temperature = 25 degC
*   DC Bias Voltage = 0V
*   Small Signal Operation
*----------------------------------------------------------------------
.SUBCKT KCM55TR71E336MH01 Port1 Port2
C01 Port1 N01 2.95e-05
R01 Port1 N01 3.03e+06
L02 N01 N02 1.67e-11
R03 N02 N03 4.82e-03
C04 N03 N04 4.18e-03
R04 N03 N04 2.34e-01
C05 N04 N05 2.90e-03
R05 N04 N05 3.80e-02
C06 N05 N06 3.78e-03
R06 N05 N06 2.14e-03
L07 N06 N07 1.28e-11
R07 N06 N07 9.42e-02
L08 N07 N08 1.02e-10
R08 N07 N08 5.09e-02
L09 N08 N09 7.79e-10
R09 N08 N09 2.20e-02
L10 N09 N10 7.51e-10
R10 N09 N10 2.75e-03
C11 N10 N11 6.53e-05
L11 N10 N11 2.20e-10
R11 N10 N11 6.34e-03
C12 N11 N12 2.51e-05
L12 N11 N12 1.49e-10
R12 N11 N12 4.69e-03
C13 N12 Port2 2.87e-12
L13 N12 Port2 1.13e-09
R13 N12 Port2 5.12e+02
.ENDS KCM55TR71E336MH01
*----------------------------------------------------------------------
* SPICE Model generated by Murata Manufacturing Co., Ltd.
* Copyright(C) Murata Manufacturing Co., Ltd.
* Description :5750M(2220)/X7R(-55to125[deg])/2.20e+01[uF]/50[V]
* Murata P/N :KCM55TR71H226MH01
* Property : C = 2.20e+01[uF]
*----------------------------------------------------------------------
* Applicable Conditions:
*   Frequency Range = 100[Hz]-6[GHz]
*   Temperature = 25 degC
*   DC Bias Voltage = 0V
*   Small Signal Operation
*----------------------------------------------------------------------
.SUBCKT KCM55TR71H226MH01 Port1 Port2
C01 Port1 N01 1.93e-05
R01 Port1 N01 4.55e+06
L02 N01 N02 1.09e-11
R03 N02 N03 2.82e-03
C04 N03 N04 2.66e-03
R04 N03 N04 3.18e-01
C05 N04 N05 1.81e-03
R05 N04 N05 4.01e-02
C06 N05 N06 2.85e-03
R06 N05 N06 2.07e-03
L07 N06 N07 9.05e-11
R07 N06 N07 4.48e-02
L08 N07 N08 6.60e-10
R08 N07 N08 2.15e-02
L09 N08 N09 1.29e-09
R09 N08 N09 3.54e-03
C10 N09 N10 4.03e-05
L10 N09 N10 2.24e-10
R10 N09 N10 8.49e-03
C11 N10 N11 2.00e-05
L11 N10 N11 1.13e-10
R11 N10 N11 4.91e-03
C12 N11 Port2 2.59e-12
L12 N11 Port2 1.25e-09
R12 N11 Port2 5.78e+02
.ENDS KCM55TR71H226MH01
*----------------------------------------------------------------------
* SPICE Model generated by Murata Manufacturing Co., Ltd.
* Copyright(C) Murata Manufacturing Co., Ltd.
* Description :5750M(2220)/X7R(-55to125[deg])/1.00e+01[uF]/100[V]
* Murata P/N :KCM55TR72A106MH01
* Property : C = 1.00e+01[uF]
*----------------------------------------------------------------------
* Applicable Conditions:
*   Frequency Range = 100[Hz]-6[GHz]
*   Temperature = 25 degC
*   DC Bias Voltage = 0V
*   Small Signal Operation
*----------------------------------------------------------------------
.SUBCKT KCM55TR72A106MH01 Port1 Port2
C01 Port1 N01 9.12e-06
R01 Port1 N01 1.00e+07
L02 N01 N02 7.03e-11
R03 N02 N03 3.83e-03
C04 N03 N04 8.90e-04
R04 N03 N04 1.24e+00
C05 N04 N05 9.56e-04
R05 N04 N05 1.02e-01
C06 N05 N06 9.00e-04
R06 N05 N06 1.00e-02
L07 N06 N07 8.52e-11
R07 N06 N07 8.19e-02
L08 N07 N08 6.51e-10
R08 N07 N08 2.94e-02
L09 N08 N09 1.42e-09
R09 N08 N09 2.97e-03
C10 N09 N10 2.01e-05
L10 N09 N10 1.96e-10
R10 N09 N10 1.26e-02
C11 N10 N11 1.31e-05
L11 N10 N11 8.15e-11
R11 N10 N11 7.06e-03
C12 N11 Port2 2.63e-12
L12 N11 Port2 1.14e-09
R12 N11 Port2 4.62e+02
.ENDS KCM55TR72A106MH01
*----------------------------------------------------------------------
* SPICE Model generated by Murata Manufacturing Co., Ltd.
* Copyright(C) Murata Manufacturing Co., Ltd.
* Description :5750M(2220)/X7R(-55to125[deg])/2.20e+01[uF]/35[V]
* Murata P/N :KCM55TR7YA226MH01
* Property : C = 2.20e+01[uF]
*----------------------------------------------------------------------
* Applicable Conditions:
*   Frequency Range = 100[Hz]-6[GHz]
*   Temperature = 25 degC
*   DC Bias Voltage = 0V
*   Small Signal Operation
*----------------------------------------------------------------------
.SUBCKT KCM55TR7YA226MH01 Port1 Port2
C01 Port1 N01 1.93e-05
R01 Port1 N01 4.55e+06
L02 N01 N02 1.09e-11
R03 N02 N03 2.82e-03
C04 N03 N04 2.66e-03
R04 N03 N04 3.18e-01
C05 N04 N05 1.81e-03
R05 N04 N05 4.01e-02
C06 N05 N06 2.85e-03
R06 N05 N06 2.07e-03
L07 N06 N07 9.05e-11
R07 N06 N07 4.48e-02
L08 N07 N08 6.60e-10
R08 N07 N08 2.15e-02
L09 N08 N09 1.29e-09
R09 N08 N09 3.54e-03
C10 N09 N10 4.03e-05
L10 N09 N10 2.24e-10
R10 N09 N10 8.49e-03
C11 N10 N11 2.00e-05
L11 N10 N11 1.13e-10
R11 N10 N11 4.91e-03
C12 N11 Port2 2.59e-12
L12 N11 Port2 1.25e-09
R12 N11 Port2 5.78e+02
.ENDS KCM55TR7YA226MH01
*----------------------------------------------------------------------
* SPICE Model generated by Murata Manufacturing Co., Ltd.
* Copyright(C) Murata Manufacturing Co., Ltd.
* Description :5750M(2220)/X7R(-55to125[deg])/3.30e+01[uF]/35[V]
* Murata P/N :KCM55TR7YA336MH01
* Property : C = 3.30e+01[uF]
*----------------------------------------------------------------------
* Applicable Conditions:
*   Frequency Range = 100[Hz]-6[GHz]
*   Temperature = 25 degC
*   DC Bias Voltage = 0V
*   Small Signal Operation
*----------------------------------------------------------------------
.SUBCKT KCM55TR7YA336MH01 Port1 Port2
C01 Port1 N01 2.95e-05
R01 Port1 N01 3.03e+06
L02 N01 N02 1.67e-11
R03 N02 N03 4.82e-03
C04 N03 N04 4.18e-03
R04 N03 N04 2.34e-01
C05 N04 N05 2.90e-03
R05 N04 N05 3.80e-02
C06 N05 N06 3.78e-03
R06 N05 N06 2.14e-03
L07 N06 N07 1.28e-11
R07 N06 N07 9.42e-02
L08 N07 N08 1.02e-10
R08 N07 N08 5.09e-02
L09 N08 N09 7.79e-10
R09 N08 N09 2.20e-02
L10 N09 N10 7.51e-10
R10 N09 N10 2.75e-03
C11 N10 N11 6.53e-05
L11 N10 N11 2.20e-10
R11 N10 N11 6.34e-03
C12 N11 N12 2.51e-05
L12 N11 N12 1.49e-10
R12 N11 N12 4.69e-03
C13 N12 Port2 2.87e-12
L13 N12 Port2 1.13e-09
R13 N12 Port2 5.12e+02
.ENDS KCM55TR7YA336MH01
*----------------------------------------------------------------------
* SPICE Model generated by Murata Manufacturing Co., Ltd.
* Copyright(C) Murata Manufacturing Co., Ltd.
* Description :5750M(2220)/X7S(-55to125[deg])/1.00e+02[uF]/25[V]
* Murata P/N :KCM55WC71E107MH13
* Property : C = 1.00e+02[uF]
*----------------------------------------------------------------------
* Applicable Conditions:
*   Frequency Range = 100[Hz]-3[GHz]
*   Temperature = 25 degC
*   DC Bias Voltage = 0V
*   Small Signal Operation
*----------------------------------------------------------------------
.SUBCKT KCM55WC71E107MH13 Port1 Port2
C01 Port1 N01 8.86e-05
R01 Port1 N01 1.00e+06
L02 N01 N02 5.31e-12
R03 N02 N03 3.02e-03
C04 N03 N04 9.33e-03
R04 N03 N04 6.75e-02
C05 N04 N05 6.92e-03
R05 N04 N05 9.99e-03
L06 N05 N06 1.48e-10
R06 N05 N06 2.75e-02
L07 N06 N07 9.53e-10
R07 N06 N07 1.35e-02
L08 N07 N08 1.77e-09
R08 N07 N08 4.36e-03
C09 N08 N09 2.94e-04
L09 N08 N09 2.14e-10
R09 N08 N09 3.85e-03
C10 N09 N10 2.74e-04
L10 N09 N10 7.60e-11
R10 N09 N10 2.48e-03
C11 N10 Port2 2.68e-12
L11 N10 Port2 1.18e-09
R11 N10 Port2 3.13e+02
.ENDS KCM55WC71E107MH13
*----------------------------------------------------------------------
* SPICE Model generated by Murata Manufacturing Co., Ltd.
* Copyright(C) Murata Manufacturing Co., Ltd.
* Description :5750M(2220)/X7R(-55to125[deg])/4.70e+01[uF]/25[V]
* Murata P/N :KCM55WR71E476MH01
* Property : C = 4.70e+01[uF]
*----------------------------------------------------------------------
* Applicable Conditions:
*   Frequency Range = 100[Hz]-6[GHz]
*   Temperature = 25 degC
*   DC Bias Voltage = 0V
*   Small Signal Operation
*----------------------------------------------------------------------
.SUBCKT KCM55WR71E476MH01 Port1 Port2
C01 Port1 N01 4.33e-05
R01 Port1 N01 2.13e+06
L02 N01 N02 7.95e-12
R03 N02 N03 3.11e-03
C04 N03 N04 7.72e-03
R04 N03 N04 1.57e-01
C05 N04 N05 5.75e-03
R05 N04 N05 3.97e-02
C06 N05 N06 4.37e-03
R06 N05 N06 9.97e-03
L07 N06 N07 1.95e-11
R07 N06 N07 2.64e-01
L08 N07 N08 1.16e-10
R08 N07 N08 4.08e-02
L09 N08 N09 7.94e-10
R09 N08 N09 1.41e-02
L10 N09 N10 1.33e-09
R10 N09 N10 3.94e-03
C11 N10 N11 1.16e-04
L11 N10 N11 2.37e-10
R11 N10 N11 7.65e-03
C12 N11 N12 8.83e-05
L12 N11 N12 8.20e-11
R12 N11 N12 3.49e-03
C13 N12 Port2 2.89e-12
L13 N12 Port2 1.13e-09
R13 N12 Port2 6.01e+02
.ENDS KCM55WR71E476MH01
*----------------------------------------------------------------------
* SPICE Model generated by Murata Manufacturing Co., Ltd.
* Copyright(C) Murata Manufacturing Co., Ltd.
* Description :5750M(2220)/X7R(-55to125[deg])/6.80e+01[uF]/25[V]
* Murata P/N :KCM55WR71E686MH01
* Property : C = 6.80e+01[uF]
*----------------------------------------------------------------------
* Applicable Conditions:
*   Frequency Range = 100[Hz]-6[GHz]
*   Temperature = 25 degC
*   DC Bias Voltage = 0V
*   Small Signal Operation
*----------------------------------------------------------------------
.SUBCKT KCM55WR71E686MH01 Port1 Port2
C01 Port1 N01 6.35e-05
R01 Port1 N01 1.47e+06
L02 N01 N02 8.10e-12
R03 N02 N03 2.85e-03
C04 N03 N04 8.78e-03
R04 N03 N04 1.26e-01
C05 N04 N05 4.25e-03
R05 N04 N05 2.21e-02
L06 N05 N06 1.38e-10
R06 N05 N06 3.51e-02
L07 N06 N07 1.07e-09
R07 N06 N07 1.32e-02
L08 N07 N08 1.24e-09
R08 N07 N08 3.43e-03
C09 N08 N09 2.15e-04
L09 N08 N09 1.94e-10
R09 N08 N09 5.02e-03
C10 N09 N10 2.83e-04
L10 N09 N10 4.24e-11
R10 N09 N10 2.20e-03
C11 N10 N11 3.65e-08
L11 N10 N11 1.46e-11