*----------------------------------------------------------------------
* SPICE Model generated by Murata Manufacturing Co., Ltd.
* Copyright(C) Murata Manufacturing Co., Ltd.
* Description :2012M(0805)/X5R(-55to85[deg])/1.00e+01[uF]/16[V]
* Murata P/N :KRM21ER61C106KFA1
* Property : C = 1.00e+01[uF]
*----------------------------------------------------------------------
* Applicable Conditions:
*   Frequency Range = 10[kHz]-6[GHz]
*   Temperature = 25 degC
*   DC Bias Voltage = 0V
*   Small Signal Operation
*----------------------------------------------------------------------
.SUBCKT KRM21ER61C106KFA1 Port1 Port2
C01 Port1 N01 7.07e-06
R01 Port1 N01 5.00e+06
L02 N01 N02 4.10e-10
R03 N02 N03 5.44e-03
C04 N03 N04 1.58e-04
R04 N03 N04 5.04e+00
C05 N04 N05 1.68e-04
R05 N04 N05 2.98e-01
C06 N05 N06 1.61e-04
R06 N05 N06 2.04e-02
L07 N06 N07 1.86e-11
R07 N06 N07 4.91e-01
L08 N07 N08 1.01e-10
R08 N07 N08 8.95e-02
L09 N08 N09 6.28e-10
R09 N08 N09 3.15e-02
L10 N09 N10 3.04e-10
R10 N09 N10 5.48e-03
C11 N10 Port2 1.33e-12
L11 N10 Port2 2.85e-10
R11 N10 Port2 1.43e+02
.ENDS KRM21ER61C106KFA1
*----------------------------------------------------------------------
* SPICE Model generated by Murata Manufacturing Co., Ltd.
* Copyright(C) Murata Manufacturing Co., Ltd.
* Description :2012M(0805)/X5R(-55to85[deg])/1.00e+01[uF]/25[V]
* Murata P/N :KRM21ER61E106KFA1
* Property : C = 1.00e+01[uF]
*----------------------------------------------------------------------
* Applicable Conditions:
*   Frequency Range = 10[kHz]-6[GHz]
*   Temperature = 25 degC
*   DC Bias Voltage = 0V
*   Small Signal Operation
*----------------------------------------------------------------------
.SUBCKT KRM21ER61E106KFA1 Port1 Port2
C01 Port1 N01 7.07e-06
R01 Port1 N01 5.00e+06
L02 N01 N02 4.10e-10
R03 N02 N03 5.44e-03
C04 N03 N04 1.58e-04
R04 N03 N04 5.04e+00
C05 N04 N05 1.68e-04
R05 N04 N05 2.98e-01
C06 N05 N06 1.61e-04
R06 N05 N06 2.04e-02
L07 N06 N07 1.86e-11
R07 N06 N07 4.91e-01
L08 N07 N08 1.01e-10
R08 N07 N08 8.95e-02
L09 N08 N09 6.28e-10
R09 N08 N09 3.15e-02
L10 N09 N10 3.04e-10
R10 N09 N10 5.48e-03
C11 N10 Port2 1.33e-12
L11 N10 Port2 2.85e-10
R11 N10 Port2 1.43e+02
.ENDS KRM21ER61E106KFA1
*----------------------------------------------------------------------
* SPICE Model generated by Murata Manufacturing Co., Ltd.
* Copyright(C) Murata Manufacturing Co., Ltd.
* Description :2012M(0805)/X7S(-55to125[deg])/1.00e+01[uF]/25[V]
* Murata P/N :KRM21FC71E106KFA1
* Property : C = 1.00e+01[uF]
*----------------------------------------------------------------------
* Applicable Conditions:
*   Frequency Range = 100[Hz]-6[GHz]
*   Temperature = 25 degC
*   DC Bias Voltage = 0V
*   Small Signal Operation
*----------------------------------------------------------------------
.SUBCKT KRM21FC71E106KFA1 Port1 Port2
C01 Port1 N01 7.08e-06
R01 Port1 N01 5.00e+06
L02 N01 N02 3.78e-10
R03 N02 N03 5.04e-03
C04 N03 N04 3.61e-04
R04 N03 N04 3.60e+00
C05 N04 N05 3.29e-04
R05 N04 N05 3.84e-01
C06 N05 N06 2.99e-04
R06 N05 N06 3.46e-02
C07 N06 N07 5.44e-04
R07 N06 N07 3.05e-03
L08 N07 N08 1.56e-10
R08 N07 N08 2.66e+02
L09 N08 N09 6.60e-11
R09 N08 N09 1.05e+01
L10 N09 N10 6.13e-11
R10 N09 N10 7.64e-02
L11 N10 N11 3.69e-10
R11 N10 N11 3.61e-02
L12 N11 N12 4.81e-10
R12 N11 N12 9.95e-03
C13 N12 N13 2.22e-05
L13 N12 N13 5.56e-11
R13 N12 N13 4.38e-03
C14 N13 N14 1.34e-05
L14 N13 N14 4.54e-11
R14 N13 N14 5.73e-03
C15 N14 N15 4.15e-12
L15 N14 N15 1.32e-10
R15 N14 N15 4.81e+01
C16 N15 Port2 7.44e-12
L16 N15 Port2 4.89e-11
R16 N15 Port2 1.29e+01
.ENDS KRM21FC71E106KFA1
*----------------------------------------------------------------------
* SPICE Model generated by Murata Manufacturing Co., Ltd.
* Copyright(C) Murata Manufacturing Co., Ltd.
* Description :2012M(0805)/X6S(-55to105[deg])/1.00e+01[uF]/25[V]
* Murata P/N :KRM21FC81E106KFA1
* Property : C = 1.00e+01[uF]
*----------------------------------------------------------------------
* Applicable Conditions:
*   Frequency Range = 100[Hz]-6[GHz]
*   Temperature = 25 degC
*   DC Bias Voltage = 0V
*   Small Signal Operation
*----------------------------------------------------------------------
.SUBCKT KRM21FC81E106KFA1 Port1 Port2
C01 Port1 N01 7.39e-06
R01 Port1 N01 5.00e+06
L02 N01 N02 3.78e-10
R03 N02 N03 5.04e-03
C04 N03 N04 3.61e-04
R04 N03 N04 3.60e+00
C05 N04 N05 3.29e-04
R05 N04 N05 3.84e-01
C06 N05 N06 2.99e-04
R06 N05 N06 3.46e-02
C07 N06 N07 5.44e-04
R07 N06 N07 3.05e-03
L08 N07 N08 1.56e-10
R08 N07 N08 2.66e+02
L09 N08 N09 6.60e-11
R09 N08 N09 1.05e+01
L10 N09 N10 6.13e-11
R10 N09 N10 7.64e-02
L11 N10 N11 3.69e-10
R11 N10 N11 3.61e-02
L12 N11 N12 4.81e-10
R12 N11 N12 9.95e-03
C13 N12 N13 2.22e-05
L13 N12 N13 5.56e-11
R13 N12 N13 4.38e-03
C14 N13 N14 1.34e-05
L14 N13 N14 4.54e-11
R14 N13 N14 5.73e-03
C15 N14 N15 4.15e-12
L15 N14 N15 1.32e-10
R15 N14 N15 4.81e+01
C16 N15 Port2 7.44e-12
L16 N15 Port2 4.89e-11
R16 N15 Port2 1.29e+01
.ENDS KRM21FC81E106KFA1
*----------------------------------------------------------------------
* SPICE Model generated by Murata Manufacturing Co., Ltd.
* Copyright(C) Murata Manufacturing Co., Ltd.
* Description :2012M(0805)/X5R(-55to85[deg])/2.20e+01[uF]/25[V]
* Murata P/N :KRM21FR61E226MFA1
* Property : C = 2.20e+01[uF]
*----------------------------------------------------------------------
* Applicable Conditions:
*   Frequency Range = 100[Hz]-6[GHz]
*   Temperature = 25 degC
*   DC Bias Voltage = 0V
*   Small Signal Operation
*----------------------------------------------------------------------
.SUBCKT KRM21FR61E226MFA1 Port1 Port2
C01 Port1 N01 1.52e-05
R01 Port1 N01 2.27e+06
L02 N01 N02 7.64e-10
R03 N02 N03 4.27e-03
C04 N03 N04 1.43e-03
R04 N03 N04 1.14e-03
L05 N04 N05 4.78e-10
R05 N04 N05 3.83e-02
L06 N05 N06 5.13e-10
R06 N05 N06 6.50e-03
C07 N06 N07 1.20e-05
L07 N06 N07 1.63e-10
R07 N06 N07 5.06e-03
C08 N07 N08 1.14e-08
L08 N07 N08 5.20e-11
R08 N07 N08 3.48e-02
C09 N08 N09 5.51e-10
L09 N08 N09 3.16e-11
R09 N08 N09 1.18e-01
C10 N09 N10 1.23e-10
L10 N09 N10 1.60e-11
R10 N09 N10 4.38e-01
C11 N10 Port2 1.53e-10
L11 N10 Port2 7.30e-12
R11 N10 Port2 8.75e-01
.ENDS KRM21FR61E226MFA1
*----------------------------------------------------------------------
* SPICE Model generated by Murata Manufacturing Co., Ltd.
* Copyright(C) Murata Manufacturing Co., Ltd.
* Description :3216M(1206)/X5R(-55to85[deg])/1.00e+01[uF]/25[V]
* Murata P/N :KRM31FR61E106KH01
* Property : C = 1.00e+01[uF]
*----------------------------------------------------------------------
* Applicable Conditions:
*   Frequency Range = 100[Hz]-6[GHz]
*   Temperature = 25 degC
*   DC Bias Voltage = 0V
*   Small Signal Operation
*----------------------------------------------------------------------
.SUBCKT KRM31FR61E106KH01 Port1 Port2
C01 Port1 N01 6.82e-06
R01 Port1 N01 5.00e+06
L02 N01 N02 3.05e-11
R03 N02 N03 7.87e-03
C04 N03 N04 2.09e-04
R04 N03 N04 5.38e+00
C05 N04 N05 2.20e-04
R05 N04 N05 4.91e-01
C06 N05 N06 2.50e-04
R06 N05 N06 6.44e-02
C07 N06 N07 1.61e-04
R07 N06 N07 1.93e-02
L08 N07 N08 8.39e-12
R08 N07 N08 1.60e-01
L09 N08 N09 1.35e-10
R09 N08 N09 7.94e-02
L10 N09 N10 5.12e-10
R10 N09 N10 1.89e-02
L11 N10 N11 7.31e-11
R11 N10 N11 1.25e-03
C12 N11 Port2 7.12e-13
L12 N11 Port2 1.20e-09
R12 N11 Port2 4.18e+02
.ENDS KRM31FR61E106KH01
*----------------------------------------------------------------------
* SPICE Model generated by Murata Manufacturing Co., Ltd.
* Copyright(C) Murata Manufacturing Co., Ltd.
* Description :3216M(1206)/X6S(-55to105[deg])/1.00e+01[uF]/25[V]
* Murata P/N :KRM31KC81E106KH01
* Property : C = 1.00e+01[uF]
*----------------------------------------------------------------------
* Applicable Conditions:
*   Frequency Range = 100[Hz]-6[GHz]
*   Temperature = 25 degC
*   DC Bias Voltage = 0V
*   Small Signal Operation
*----------------------------------------------------------------------
.SUBCKT KRM31KC81E106KH01 Port1 Port2
C01 Port1 N01 7.70e-06
R01 Port1 N01 5.00e+06
L02 N01 N02 3.02e-10
R03 N02 N03 1.17e-02
C04 N03 N04 3.71e-04
R04 N03 N04 2.81e+00
C05 N04 N05 3.90e-04
R05 N04 N05 2.40e-01
C06 N05 N06 3.53e-04
R06 N05 N06 2.05e-02
L07 N06 N07 1.83e-10
R07 N06 N07 6.06e-02
L08 N07 N08 4.85e-12
R08 N07 N08 4.39e-02
L09 N08 N09 1.29e-09
R09 N08 N09 3.24e-02
C10 N09 N10 1.22e-11
L10 N09 N10 1.38e-10
R10 N09 N10 3.10e+01
C11 N10 N11 1.23e-12
L11 N10 N11 1.02e-09
R11 N10 N11 1.59e+02
C12 N11 Port2 8.78e-12
L12 N11 Port2 7.50e-11
R12 N11 Port2 2.86e+01
.ENDS KRM31KC81E106KH01
*----------------------------------------------------------------------
* SPICE Model generated by Murata Manufacturing Co., Ltd.
* Copyright(C) Murata Manufacturing Co., Ltd.
* Description :3216M(1206)/X6S(-55to105[deg])/1.00e+01[uF]/35[V]
* Murata P/N :KRM31KC8YA106KH01
* Property : C = 1.00e+01[uF]
*----------------------------------------------------------------------
* Applicable Conditions:
*   Frequency Range = 100[Hz]-6[GHz]
*   Temperature = 25 degC
*   DC Bias Voltage = 0V
*   Small Signal Operation
*----------------------------------------------------------------------
.SUBCKT KRM31KC8YA106KH01 Port1 Port2
C01 Port1 N01 6.94e-06
R01 Port1 N01 5.00e+06
L02 N01 N02 9.28e-11
R03 N02 N03 9.20e-03
C04 N03 N04 3.65e-05
R04 N03 N04 3.60e-02
L05 N04 N05 1.41e-12
R05 N04 N05 1.30e-01
L06 N05 N06 6.62e-11
R06 N05 N06 5.22e-02
L07 N06 N07 1.07e-10
R07 N06 N07 2.10e-02
L08 N07 N08 5.25e-10
R08 N07 N08 2.10e-02
L09 N08 N09 3.32e-10
R09 N08 N09 5.45e-03
C10 N09 Port2 5.50e-13
L10 N09 Port2 1.41e-09
R10 N09 Port2 3.88e+02
.ENDS KRM31KC8YA106KH01
*----------------------------------------------------------------------
* SPICE Model generated by Murata Manufacturing Co., Ltd.
* Copyright(C) Murata Manufacturing Co., Ltd.
* Description :3216M(1206)/X7R(-55to125[deg])/2.20e+00[uF]/50[V]
* Murata P/N :KRM31KR71H225KH01
* Property : C = 2.20e+00[uF]
*----------------------------------------------------------------------
* Applicable Conditions:
*   Frequency Range = 100[Hz]-6[GHz]
*   Temperature = 25 degC
*   DC Bias Voltage = 0V
*   Small Signal Operation
*----------------------------------------------------------------------
.SUBCKT KRM31KR71H225KH01 Port1 Port2
C01 Port1 N01 2.11e-06
R01 Port1 N01 2.27e+08
L02 N01 N02 2.26e-11
R03 N02 N03 5.42e-03
C04 N03 N04 2.57e-04
R04 N03 N04 1.35e-01
C05 N04 N05 2.14e-04
R05 N04 N05 1.37e-02
C06 N05 N06 4.99e-05
R06 N05 N06 2.86e-03
L07 N06 N07 5.29e-11
R07 N06 N07 8.35e-02
L08 N07 N08 4.55e-10
R08 N07 N08 5.17e-02
L09 N08 N09 7.72e-10
R09 N08 N09 8.76e-03
C10 N09 N10 3.56e-04
L10 N09 N10 1.20e-03
R10 N09 N10 6.93e-01
C11 N10 N11 5.95e-06
L11 N10 N11 1.02e-10
R11 N10 N11 1.12e-02
C12 N11 N12 2.13e-06
L12 N11 N12 1.20e-10
R12 N11 N12 1.48e-02
C13 N12 Port2 6.71e-13
L13 N12 Port2 1.42e-09
R13 N12 Port2 7.86e+02
.ENDS KRM31KR71H225KH01
*----------------------------------------------------------------------
* SPICE Model generated by Murata Manufacturing Co., Ltd.
* Copyright(C) Murata Manufacturing Co., Ltd.
* Description :3216M(1206)/X7R(-55to125[deg])/4.70e+00[uF]/50[V]
* Murata P/N :KRM31KR71H475KH01
* Property : C = 4.70e+00[uF]
*----------------------------------------------------------------------
* Applicable Conditions:
*   Frequency Range = 100[Hz]-6[GHz]
*   Temperature = 25 degC
*   DC Bias Voltage = 0V
*   Small Signal Operation
*----------------------------------------------------------------------
.SUBCKT KRM31KR71H475KH01 Port1 Port2
C01 Port1 N01 4.26e-06
R01 Port1 N01 1.06e+08
L02 N01 N02 2.26e-11
R03 N02 N03 6.02e-03
C04 N03 N04 8.90e-04
R04 N03 N04 6.38e-01
C05 N04 N05 8.55e-04
R05 N04 N05 9.74e-02
C06 N05 N06 6.47e-04
R06 N05 N06 1.74e-02
L07 N06 N07 9.14e-11
R07 N06 N07 7.75e-02
L08 N07 N08 5.11e-10
R08 N07 N08 3.05e-02
L09 N08 N09 4.56e-10
R09 N08 N09 5.65e-03
C10 N09 N10 1.45e-05
L10 N09 N10 9.20e-11
R10 N09 N10 8.28e-03
C11 N10 N11 1.14e-05
L11 N10 N11 5.68e-11
R11 N10 N11 8.15e-03
C12 N11 N12 9.44e-13
L12 N11 N12 1.18e-09
R12 N11 N12 5.40e+02
C13 N12 Port2 2.93e-12
L13 N12 Port2 2.02e-10
R13 N12 Port2 4.67e+01
.ENDS KRM31KR71H475KH01
*----------------------------------------------------------------------
* SPICE Model generated by Murata Manufacturing Co., Ltd.
* Copyright(C) Murata Manufacturing Co., Ltd.
* Description :3216M(1206)/X7R(-55to125[deg])/1.00e+00[uF]/100[V]
* Murata P/N :KRM31KR72A105KH01
* Property : C = 1.00e+00[uF]
*----------------------------------------------------------------------
* Applicable Conditions:
*   Frequency Range = 100[Hz]-6[GHz]
*   Temperature = 25 degC
*   DC Bias Voltage = 0V
*   Small Signal Operation
*----------------------------------------------------------------------
.SUBCKT KRM31KR72A105KH01 Port1 Port2
C01 Port1 N01 9.80e-07
R01 Port1 N01 5.00e+08
L02 N01 N02 1.45e-11
R03 N02 N03 1.15e-02
C04 N03 N04 1.25e-04
R04 N03 N04 1.21e-02
L05 N04 N05 4.35e-12
R05 N04 N05 1.16e-01
L06 N05 N06 3.18e-11
R06 N05 N06 7.30e-02
L07 N06 N07 4.43e-10
R07 N06 N07 6.37e-02
L08 N07 N08 3.09e-10
R08 N07 N08 5.51e-03
C09 N08 N09 2.67e-06
L09 N08 N09 1.03e-10
R09 N08 N09 2.15e-02
C10 N09 N10 1.51e-06
L10 N09 N10 6.89e-11
R10 N09 N10 2.16e-02
C11 N10 Port2 6.21e-13
L11 N10 Port2 1.43e-09
R11 N10 Port2 2.08e+03
.ENDS KRM31KR72A105KH01
*----------------------------------------------------------------------
* SPICE Model generated by Murata Manufacturing Co., Ltd.
* Copyright(C) Murata Manufacturing Co., Ltd.
* Description :3216M(1206)/X7R(-55to125[deg])/2.20e+00[uF]/100[V]
* Murata P/N :KRM31KR72A225KH01
* Property : C = 2.20e+00[uF]
*----------------------------------------------------------------------
* Applicable Conditions:
*   Frequency Range = 100[Hz]-6[GHz]
*   Temperature = 25 degC
*   DC Bias Voltage = 0V
*   Small Signal Operation
*----------------------------------------------------------------------
.SUBCKT KRM31KR72A225KH01 Port1 Port2
C01 Port1 N01 2.16e-06
R01 Port1 N01 2.27e+08
L02 N01 N02 3.59e-11
R03 N02 N03 7.01e-03
C04 N03 N04 3.81e-04
R04 N03 N04 6.27e-01
C05 N04 N05 3.10e-04
R05 N04 N05 9.47e-02
C06 N05 N06 2.59e-04
R06 N05 N06 1.58e-02
L07 N06 N07 2.98e-12
R07 N06 N07 7.24e-02
L08 N07 N08 2.59e-10
R08 N07 N08 3.87e-02
L09 N08 N09 2.25e-10
R09 N08 N09 6.53e-03
C10 N09 N10 8.63e-06
L10 N09 N10 6.10e-11
R10 N09 N10 8.01e-03
C11 N10 N11 2.11e-06
L11 N10 N11 1.01e-10
R11 N10 N11 1.45e-02
C12 N11 N12 9.32e-12
L12 N11 N12 1.58e-10
R12 N11 N12 1.87e+01
C13 N12 Port2 5.14e-13
L13 N12 Port2 1.26e-09
R13 N12 Port2 3.04e+02
.ENDS KRM31KR72A225KH01
*----------------------------------------------------------------------
* SPICE Model generated by Murata Manufacturing Co., Ltd.
* Copyright(C) Murata Manufacturing Co., Ltd.
* Description :5750M(2220)/X7R(-55to125[deg])/1.50e+01[uF]/25[V]
* Murata P/N :KRM55LR71E156KH01
* Property : C = 1.50e+01[uF]
*----------------------------------------------------------------------
* Applicable Conditions:
*   Frequency Range = 100[Hz]-6[GHz]
*   Temperature = 25 degC
*   DC Bias Voltage = 0V
*   Small Signal Operation
*----------------------------------------------------------------------
.SUBCKT KRM55LR71E156KH01 Port1 Port2
C01 Port1 N01 1.44e-05
R01 Port1 N01 6.67e+06
L02 N01 N02 2.13e-12
R03 N02 N03 4.92e-03
C04 N03 N04 1.70e-03
R04 N03 N04 7.12e-01
C05 N04 N05 1.81e-03
R05 N04 N05 8.35e-02
C06 N05 N06 1.54e-03
R06 N05 N06 9.80e-03
L07 N06 N07 7.74e-11
R07 N06 N07 8.28e-02
L08 N07 N08 4.16e-10
R08 N07 N08 2.56e-02
L09 N08 N09 8.06e-10
R09 N08 N09 4.58e-03
C10 N09 N10 4.88e-05
L10 N09 N10 7.05e-11
R10 N09 N10 3.54e-03
C11 N10 N11 6.87e-06
L11 N10 N11 1.68e-10
R11 N10 N11 8.53e-03
C12 N11 Port2 3.00e-12
L12 N11 Port2 1.19e-09
R12 N11 Port2 5.68e+02
.ENDS KRM55LR71E156KH01
*----------------------------------------------------------------------
* SPICE Model generated by Murata Manufacturing Co., Ltd.
* Copyright(C) Murata Manufacturing Co., Ltd.
* Description :5750M(2220)/X7R(-55to125[deg])/1.00e+01[uF]/50[V]
* Murata P/N :KRM55LR71H106KH01
* Property : C = 1.00e+01[uF]
*----------------------------------------------------------------------
* Applicable Conditions:
*   Frequency Range = 100[Hz]-6[GHz]
*   Temperature = 25 degC
*   DC Bias Voltage = 0V
*   Small Signal Operation
*----------------------------------------------------------------------
.SUBCKT KRM55LR71H106KH01 Port1 Port2
C01 Port1 N01 9.83e-06
R01 Port1 N01 1.00e+07
L02 N01 N02 2.25e-10
R03 N02 N03 5.39e-03
C04 N03 N04 1.13e-03
R04 N03 N04 1.03e+00
C05 N04 N05 1.20e-03
R05 N04 N05 1.07e-01
C06 N05 N06 1.09e-03
R06 N05 N06 1.14e-02
L07 N06 N07 5.99e-12
R07 N06 N07 4.37e-01
L08 N07 N08 8.02e-11
R08 N07 N08 6.98e-02
L09 N08 N09 4.03e-10
R09 N08 N09 2.75e-02
L10 N09 N10 9.47e-10
R10 N09 N10 4.81e-03
C11 N10 N11 2.52e-05
L11 N10 N11 8.28e-11
R11 N10 N11 5.58e-03
C12 N11 N12 4.54e-06
L12 N11 N12 1.47e-10
R12 N11 N12 9.58e-03
C13 N12 Port2 3.44e-12
L13 N12 Port2 1.06e-09
R13 N12 Port2 6.19e+02
.ENDS KRM55LR71H106KH01
*----------------------------------------------------------------------
* SPICE Model generated by Murata Manufacturing Co., Ltd.
* Copyright(C) Murata Manufacturing Co., Ltd.
* Description :5750M(2220)/X7R(-55to125[deg])/4.70e+00[uF]/50[V]
* Murata P/N :KRM55LR71H475KH01
* Property : C = 4.70e+00[uF]
*----------------------------------------------------------------------
* Applicable Conditions:
*   Frequency Range = 100[Hz]-6[GHz]
*   Temperature = 25 degC
*   DC Bias Voltage = 0V
*   Small Signal Operation
*----------------------------------------------------------------------
.SUBCKT KRM55LR71H475KH01 Port1 Port2
C01 Port1 N01 4.66e-06
R01 Port1 N01 2.13e+07
L02 N01 N02 2.29e-10
R03 N02 N03 6.81e-03
C04 N03 N04 7.08e-04
R04 N03 N04 6.03e-01
C05 N04 N05 5.86e-04
R05 N04 N05 9.47e-02
C06 N05 N06 5.81e-04
R06 N05 N06 1.07e-02
L07 N06 N07 7.10e-11
R07 N06 N07 8.52e-02
L08 N07 N08 3.35e-10
R08 N07 N08 3.57e-02
L09 N08 N09 5.20e-10
R09 N08 N09 5.16e-03
C10 N09 N10 9.42e-06
L10 N09 N10 9.13e-11
R10 N09 N10 7.27e-03
C11 N10 N11 2.77e-06
L11 N10 N11 1.01e-10
R11 N10 N11 1.00e-02
C12 N11 Port2 3.52e-12
L12 N11 Port2 9.80e-10
R12 N11 Port2 4.43e+02
.ENDS KRM55LR71H475KH01
*----------------------------------------------------------------------
* SPICE Model generated by Murata Manufacturing Co., Ltd.
* Copyright(C) Murata Manufacturing Co., Ltd.
* Description :5750M(2220)/X7R(-55to125[deg])/4.70e+00[uF]/63[V]
* Murata P/N :KRM55LR71J475KH01
* Property : C = 4.70e+00[uF]
*----------------------------------------------------------------------
* Applicable Conditions:
*   Frequency Range = 100[Hz]-6[GHz]
*   Temperature = 25 degC
*   DC Bias Voltage = 0V
*   Small Signal Operation
*----------------------------------------------------------------------
.SUBCKT KRM55LR71J475KH01 Port1 Port2
C01 Port1 N01 4.80e-06
R01 Port1 N01 2.13e+07
L02 N01 N02 1.43e-11
R03 N02 N03 6.31e-03
C04 N03 N04 6.69e-04
R04 N03 N04 6.12e-01
C05 N04 N05 6.19e-04
R05 N04 N05 9.94e-02
C06 N05 N06 6.30e-04
R06 N05 N06 1.05e-02
L07 N06 N07 5.83e-11
R07 N06 N07 8.65e-02
L08 N07 N08 3.31e-10
R08 N07 N08 3.59e-02
L09 N08 N09 5.98e-10
R09 N08 N09 6.11e-03
C10 N09 N10 8.51e-06
L10 N09 N10 1.04e-10
R10 N09 N10 8.75e-03
C11 N10 N11 3.04e-06
L11 N10 N11 8.66e-11
R11 N10 N11 8.93e-03
C12 N11 Port2 3.14e-12
L12 N11 Port2 1.23e-09
R12 N11 Port2 6.11e+02
.ENDS KRM55LR71J475KH01
*----------------------------------------------------------------------
* SPICE Model generated by Murata Manufacturing Co., Ltd.
* Copyright(C) Murata Manufacturing Co., Ltd.
* Description :5750M(2220)/X7R(-55to125[deg])/4.70e+00[uF]/100[V]
* Murata P/N :KRM55LR72A475KH01
* Property : C = 4.70e+00[uF]
*----------------------------------------------------------------------
* Applicable Conditions:
*   Frequency Range = 100[Hz]-6[GHz]
*   Temperature = 25 degC
*   DC Bias Voltage = 0V
*   Small Signal Operation
*----------------------------------------------------------------------
.SUBCKT KRM55LR72A475KH01 Port1 Port2
C01 Port1 N01 4.59e-06
R01 Port1 N01 2.13e+07
L02 N01 N02 4.86e-11
R03 N02 N03 7.62e-03
C04 N03 N04 4.86e-04
R04 N03 N04 2.31e+00
C05 N04 N05 5.54e-04
R05 N04 N05 1.92e-01
C06 N05 N06 4.76e-04
R06 N05 N06 1.96e-02
L07 N06 N07 7.57e-11
R07 N06 N07 9.64e-02
L08 N07 N08 3.05e-10
R08 N07 N08 2.73e-02
L09 N08 N09 4.94e-10
R09 N08 N09 7.41e-03
C10 N09 N10 1.01e-05
L10 N09 N10 8.01e-11
R10 N09 N10 7.86e-03
C11 N10 N11 5.18e-06
L11 N10 N11 5.60e-11
R11 N10 N11 7.06e-03
C12 N11 Port2 2.99e-12
L12 N11 Port2 1.28e-09
R12 N11 Port2 7.07e+02
.ENDS KRM55LR72A475KH01
*----------------------------------------------------------------------
* SPICE Model generated by Murata Manufacturing Co., Ltd.
* Copyright(C) Murata Manufacturing Co., Ltd.
* Description :5750M(2220)/X7R(-55to125[deg])/1.00e+00[uF]/250[V]
* Murata P/N :KRM55LR72E105KH01
* Property : C = 1.00e+00[uF]
*----------------------------------------------------------------------
* Applicable Conditions:
*   Frequency Range = 100[kHz]-6[GHz]
*   Temperature = 25 degC
*   DC Bias Voltage = 0V
*   Small Signal Operation
*----------------------------------------------------------------------
.SUBCKT KRM55LR72E105KH01 Port1 Port2
C01 Port1 N01 9.93e-07
R01 Port1 N01 1.00e+08
L02 N01 N02 1.15e-11
R03 N02 N03 5.67e-03
C04 N03 N04 1.46e-04
R04 N03 N04 2.34e+00
C05 N04 N05 1.32e-04
R05 N04 N05 3.71e-01
C06 N05 N06 1.16e-04
R06 N05 N06 4.51e-02
C07 N06 N07 4.65e-05
R07 N06 N07 9.86e-03
L08 N07 N08 4.05e-11
R08 N07 N08 2.06e-01
L09 N08 N09 2.91e-10
R09 N08 N09 6.54e-02
L10 N09 N10 1.51e-09
R10 N09 N10 9.78e-03
C11 N10 N11 1.95e-06
L11 N10 N11 9.66e-11
R11 N10 N11 1.77e-02
C12 N11 N12 8.67e-07
L12 N11 N12 7.50e-11
R12 N11 N12 2.32e-02
C13 N12 Port2 3.06e-12
L13 N12 Port2 1.20e-09
R13 N12 Port2 5.92e+02
.ENDS KRM55LR72E105KH01
*----------------------------------------------------------------------
* SPICE Model generated by Murata Manufacturing Co., Ltd.
* Copyright(C) Murata Manufacturing Co., Ltd.
* Description :5750M(2220)/X7R(-55to125[deg])/6.80e-01[uF]/250[V]
* Murata P/N :KRM55LR72E684KH01
* Property : C = 6.80e-01[uF]
*----------------------------------------------------------------------
* Applicable Conditions:
*   Frequency Range = 100[kHz]-6[GHz]
*   Temperature = 25 degC
*   DC Bias Voltage = 0V
*   Small Signal Operation
*----------------------------------------------------------------------
.SUBCKT KRM55LR72E684KH01 Port1 Port2
C01 Port1 N01 6.72e-07
R01 Port1 N01 1.47e+08
L02 N01 N02 5.30e-12
R03 N02 N03 1.46e-02
C04 N03 N04 7.09e-05
R04 N03 N04 1.51e-02
L05 N04 N05 3.59e-10
R05 N04 N05 5.20e-02
L06 N05 N06 1.39e-11
R06 N05 N06 2.13e-02
L07 N06 N07 2.72e-10
R07 N06 N07 4.07e-03
C08 N07 N08 8.80e-06
L08 N07 N08 1.09e-11
R08 N07 N08 6.20e-03
C09 N08 N09 3.90e-12
L09 N08 N09 1.10e-09
R09 N08 N09 2.26e+02
C10 N09 Port2 9.27e-12
L10 N09 Port2 3.34e-10
R10 N09 Port2 2.43e+01
.ENDS KRM55LR72E684KH01
*----------------------------------------------------------------------
* SPICE Model generated by Murata Manufacturing Co., Ltd.
* Copyright(C) Murata Manufacturing Co., Ltd.
* Description :5750M(2220)/X7R(-55to125[deg])/1.50e-01[uF]/630[V]
* Murata P/N :KRM55LR72J154KH01
* Property : C = 1.50e-01[uF]
*----------------------------------------------------------------------
* Applicable Conditions:
*   Frequency Range = 100[kHz]-6[GHz]
*   Temperature = 25 degC
*   DC Bias Voltage = 0V
*   Small Signal Operation
*----------------------------------------------------------------------
.SUBCKT KRM55LR72J154KH01 Port1 Port2
C01 Port1 N01 1.45e-07
R01 Port1 N01 6.67e+08
L02 N01 N02 1.15e-12
R03 N02 N03 5.74e-03
C04 N03 N04 1.31e-05
R04 N03 N04 8.85e-02
C05 N04 N05 3.50e-06
R05 N04 N05 2.06e-02
L06 N05 N06 7.42e-12
R06 N05 N06 3.01e-01
L07 N06 N07 1.69e-10
R07 N06 N07 9.94e-02
L08 N07 N08 1.06e-09
R08 N07 N08 2.02e-02
C09 N08 N09 4.03e-07
L09 N08 N09 4.92e-11
R09 N08 N09 3.55e-02
C10 N09 N10 1.37e-07
L10 N09 N10 4.49e-11
R10 N09 N10 4.31e-02
C11 N10 N11 4.69e-12
L11 N10 N11 9.75e-10
R11 N10 N11 1.74e+02
C12 N11 Port2 7.18e-12
L12 N11 Port2 4.61e-10
R12 N11 Port2 3.41e+01
.ENDS KRM55LR72J154KH01
*----------------------------------------------------------------------
* SPICE Model generated by Murata Manufacturing Co., Ltd.
* Copyright(C) Murata Manufacturing Co., Ltd.
* Description :5750M(2220)/X7R(-55to125[deg])/2.20e-01[uF]/630[V]
* Murata P/N :KRM55LR72J224KH01
* Property : C = 2.20e-01[uF]
*----------------------------------------------------------------------
* Applicable Conditions:
*   Frequency Range = 100[kHz]-6[GHz]
*   Temperature = 25 degC
*   DC Bias Voltage = 0V
*   Small Signal Operation
*----------------------------------------------------------------------
.SUBCKT KRM55LR72J224KH01 Port1 Port2
C01 Port1 N01 2.20e-07
R01 Port1 N01 4.55e+08
L02 N01 N02 9.08e-12
R03 N02 N03 1.83e-02
C04 N03 N04 1.71e-05
R04 N03 N04 6.43e-02
L05 N04 N05 2.18e-10
R05 N04 N05 1.04e-01
L06 N05 N06 8.32e-12
R06 N05 N06 6.67e-02
L07 N06 N07 6.50e-11
R07 N06 N07 6.61e-03
C08 N07 N08 6.25e-07
L08 N07 N08 6.56e-11
R08 N07 N08 4.69e-02
C09 N08 N09 1.78e-07
L09 N08 N09 7.29e-11
R09 N08 N09 5.78e-02
C10 N09 Port2 2.89e-12
L10 N09 Port2 1.25e-09
R10 N09 Port2 5.00e+02
.ENDS KRM55LR72J224KH01
*----------------------------------------------------------------------
* SPICE Model generated by Murata Manufacturing Co., Ltd.
* Copyright(C) Murata Manufacturing Co., Ltd.
* Description :5750M(2220)/X7R(-55to125[deg])/3.30e-01[uF]/450[V]
* Murata P/N :KRM55LR72W334KH01
* Property : C = 3.30e-01[uF]
*----------------------------------------------------------------------
* Applicable Conditions:
*   Frequency Range = 100[kHz]-6[GHz]
*   Temperature = 25 degC
*   DC Bias Voltage = 0V
*   Small Signal Operation
*----------------------------------------------------------------------
.SUBCKT KRM55LR72W334KH01 Port1 Port2
C01 Port1 N01 3.27e-07
R01 Port1 N01 3.03e+08
L02 N01 N02 3.35e-12
R03 N02 N03 2.14e-02
C04 N03 N04 2.96e-05
R04 N03 N04 4.72e-02
L05 N04 N05 1.07e-10
R05 N04 N05 8.02e-02
L06 N05 N06 1.82e-10
R06 N05 N06 2.16e-02
C07 N06 N07 2.33e-07
L07 N06 N07 6.66e-11
R07 N06 N07 1.68e-02
C08 N07 N08 5.21e-12
L08 N07 N08 9.40e-10
R08 N07 N08 1.22e+02
C09 N08 N09 1.22e-11
L09 N08 N09 3.04e-10
R09 N08 N09 3.59e+01
C10 N09 N10 2.74e-11
L10 N09 N10 1.13e-10
R10 N09 N10 2.21e+01
C11 N10 Port2 4.05e-11
L11 N10 Port2 6.36e-11
R11 N10 Port2 1.14e+01
.ENDS KRM55LR72W334KH01
*----------------------------------------------------------------------
* SPICE Model generated by Murata Manufacturing Co., Ltd.
* Copyright(C) Murata Manufacturing Co., Ltd.
* Description :5750M(2220)/X7R(-55to125[deg])/4.70e-01[uF]/450[V]
* Murata P/N :KRM55LR72W474KH01
* Property : C = 4.70e-01[uF]
*----------------------------------------------------------------------
* Applicable Conditions:
*   Frequency Range = 100[kHz]-6[GHz]
*   Temperature = 25 degC
*   DC Bias Voltage = 0V
*   Small Signal Operation
*----------------------------------------------------------------------
.SUBCKT KRM55LR72W474KH01 Port1 Port2
C01 Port1 N01 4.60e-07
R01 Port1 N01 2.13e+08
L02 N01 N02 1.52e-11
R03 N02 N03 6.40e-03
C04 N03 N04 3.86e-05
R04 N03 N04 3.13e-02
C05 N04 N05 2.61e-06
R05 N04 N05 9.59e-03
L06 N05 N06 2.31e-10
R06 N05 N06 8.34e-02
L07 N06 N07 3.08e-12
R07 N06 N07 7.19e-02
L08 N07 N08 4.92e-10
R08 N07 N08 1.91e-02
C09 N08 N09 1.35e-06
L09 N08 N09 5.12e-11
R09 N08 N09 1.82e-02
C10 N09 N10 4.44e-07
L10 N09 N10 5.14e-11
R10 N09 N10 2.05e-02
C11 N10 N11 3.58e-12
L11 N10 N11 1.11e-09
R11 N10 N11 2.43e+02
C12 N11 Port2 1.58e-11
L12 N11 Port2 1.99e-10
R12 N11 Port2 2.00e+01
.ENDS KRM55LR72W474KH01
*----------------------------------------------------------------------
* SPICE Model generated by Murata Manufacturing Co., Ltd.
* Copyright(C) Murata Manufacturing Co., Ltd.
* Description :5750M(2220)/X7R(-55to125[deg])/1.00e-01[uF]/1000[V]
* Murata P/N :KRM55LR73A104KH01
* Property : C = 1.00e-01[uF]
*----------------------------------------------------------------------
* Applicable Conditions:
*   Frequency Range = 100[kHz]-6[GHz]
*   Temperature = 25 degC
*   DC Bias Voltage = 0V
*   Small Signal Operation
*----------------------------------------------------------------------
.SUBCKT KRM55LR73A104KH01 Port1 Port2
C01 Port1 N01 9.76e-08
R01 Port1 N01 1.00e+09
L02 N01 N02 1.00e-11
R03 N02 N03 8.00e-03
C04 N03 N04 8.57e-06
R04 N03 N04 2.65e-01
C05 N04 N05 1.09e-05
R05 N04 N05 3.66e-02
C06 N05 N06 8.20e-06
R06 N05 N06 8.43e-03
C07 N06 N07 1.46e-06
R07 N06 N07 7.04e-03
L08 N07 N08 1.98e-10
R08 N07 N08 1.50e-01
C09 N08 N09 3.53e-12
L09 N08 N09 3.69e-10
R09 N08 N09 4.32e+01
C10 N09 N10 1.92e-11
L10 N09 N10 1.57e-10
R10 N09 N10 1.31e+01
C11 N10 N11 8.24e-08
L11 N10 N11 5.02e-11
R11 N10 N11 6.20e-02
C12 N11 Port2 1.55e-07
L12 N11 Port2 8.84e-11
R12 N11 Port2 7.91e-02
.ENDS KRM55LR73A104KH01
*----------------------------------------------------------------------
* SPICE Model generated by Murata Manufacturing Co., Ltd.
* Copyright(C) Murata Manufacturing Co., Ltd.
* Description :5750M(2220)/X7R(-55to125[deg])/6.80e-02[uF]/1000[V]
* Murata P/N :KRM55LR73A683KH01
* Property : C = 6.80e-02[uF]
*----------------------------------------------------------------------
* Applicable Conditions:
*   Frequency Range = 100[kHz]-6[GHz]
*   Temperature = 25 degC
*   DC Bias Voltage = 0V
*   Small Signal Operation
*----------------------------------------------------------------------
.SUBCKT KRM55LR73A683KH01 Port1 Port2
C01 Port1 N01 6.78e-08
R01 Port1 N01 1.47e+09
L02 N01 N02 2.22e-12
R03 N02 N03 3.48e-02
C04 N03 N04 5.23e-06
R04 N03 N04 2.51e-01
C05 N04 N05 1.08e-05
R05 N04 N05 1.61e-02
L06 N05 N06 1.41e-10
R06 N05 N06 9.87e-02
L07 N06 N07 1.21e-11
R07 N06 N07 2.25e-03
C08 N07 N08 2.29e-07
L08 N07 N08 3.15e-11
R08 N07 N08 3.59e-02
C09 N08 N09 5.23e-12
L09 N08 N09 9.62e-10
R09 N08 N09 1.04e+02
C10 N09 Port2 6.01e-12
L10 N09 Port2 5.83e-10
R10 N09 Port2 4.13e+01
.ENDS KRM55LR73A683KH01
*----------------------------------------------------------------------
* SPICE Model generated by Murata Manufacturing Co., Ltd.
* Copyright(C) Murata Manufacturing Co., Ltd.
* Description :5750M(2220)/X7R(-55to125[deg])/1.00e+01[uF]/35[V]
* Murata P/N :KRM55LR7YA106KH01