*----------------------------------------------------------------------
* SPICE Model generated by Murata Manufacturing Co., Ltd.
* Copyright(C) Murata Manufacturing Co., Ltd.
* Description :0510M(0204)/X7S(-55to125[deg])/1.00e+00[uF]/2.5[V]
* Murata P/N :LLL153C70E105ME21
* Property : C = 1.00e+00[uF]
*----------------------------------------------------------------------
* Applicable Conditions:
*   Frequency Range = 100[Hz]-6[GHz]
*   Temperature = 25 degC
*   DC Bias Voltage = 0V
*   Small Signal Operation
*----------------------------------------------------------------------
.SUBCKT LLL153C70E105ME21 Port1 Port2
C01 Port1 N01 8.36e-07
R01 Port1 N01 5.00e+07
L02 N01 N02 5.08e-11
R03 N02 N03 3.65e-03
C04 N03 N04 2.19e-05
R04 N03 N04 2.42e+02
C05 N04 N05 5.75e-05
R05 N04 N05 1.77e+01
C06 N05 N06 3.70e-05
R06 N05 N06 4.74e+00
C07 N06 N07 4.16e-05
R07 N06 N07 6.12e-01
C08 N07 N08 4.34e-05
R08 N07 N08 7.58e-02
C09 N08 N09 4.28e-05
R09 N08 N09 9.80e-03
L10 N09 N10 1.08e-11
R10 N09 N10 5.22e-02
L11 N10 N11 6.77e-11
R11 N10 N11 2.27e-02
C12 N11 N12 2.73e-06
L12 N11 N12 1.02e-11
R12 N11 N12 6.29e-03
C13 N12 N13 1.12e-06
L13 N12 N13 1.03e-11
R13 N12 N13 8.74e-03
C14 N13 Port2 5.21e-11
L14 N13 Port2 4.51e-12
R14 N13 Port2 2.14e-01
.ENDS LLL153C70E105ME21
*----------------------------------------------------------------------
* SPICE Model generated by Murata Manufacturing Co., Ltd.
* Copyright(C) Murata Manufacturing Co., Ltd.
* Description :0510M(0204)/X7S(-55to125[deg])/4.70e-01[uF]/4[V]
* Murata P/N :LLL153C70G474ME17
* Property : C = 4.70e-01[uF]
*----------------------------------------------------------------------
* Applicable Conditions:
*   Frequency Range = 100[kHz]-6[GHz]
*   Temperature = 25 degC
*   DC Bias Voltage = 0V
*   Small Signal Operation
*----------------------------------------------------------------------
.SUBCKT LLL153C70G474ME17 Port1 Port2
C01 Port1 N01 4.20e-07
R01 Port1 N01 1.06e+08
L02 N01 N02 2.70e-11
R03 N02 N03 4.24e-03
C04 N03 N04 3.64e-05
R04 N03 N04 4.37e-01
C05 N04 N05 2.58e-05
R05 N04 N05 3.55e-01
C06 N05 N06 3.07e-05
R06 N05 N06 5.63e-02
C07 N06 N07 2.79e-05
R07 N06 N07 1.16e-02
L08 N07 N08 1.80e-11
R08 N07 N08 4.49e+00
L09 N08 N09 5.28e-12
R09 N08 N09 3.87e-02
L10 N09 N10 4.34e-11
R10 N09 N10 3.12e-02
C11 N10 N11 1.02e-06
L11 N10 N11 1.17e-11
R11 N10 N11 8.86e-03
C12 N11 N12 3.57e-07
L12 N11 N12 1.26e-11
R12 N11 N12 1.32e-02
C13 N12 N13 2.70e-11
L13 N12 N13 1.00e-11
R13 N12 N13 7.00e+00
C14 N13 Port2 3.50e-11
L14 N13 Port2 4.00e-12
R14 N13 Port2 1.00e+05
.ENDS LLL153C70G474ME17
*----------------------------------------------------------------------
* SPICE Model generated by Murata Manufacturing Co., Ltd.
* Copyright(C) Murata Manufacturing Co., Ltd.
* Description :0510M(0204)/X6S(-55to105[deg])/1.00e+00[uF]/4[V]
* Murata P/N :LLL153C80G105ME21
* Property : C = 1.00e+00[uF]
*----------------------------------------------------------------------
* Applicable Conditions:
*   Frequency Range = 100[Hz]-6[GHz]
*   Temperature = 25 degC
*   DC Bias Voltage = 0V
*   Small Signal Operation
*----------------------------------------------------------------------
.SUBCKT LLL153C80G105ME21 Port1 Port2
C01 Port1 N01 8.01e-07
R01 Port1 N01 5.00e+07
L02 N01 N02 4.69e-11
R03 N02 N03 3.36e-03
C04 N03 N04 8.91e-05
R04 N03 N04 5.55e+01
C05 N04 N05 4.15e-05
R05 N04 N05 3.14e+01
C06 N05 N06 3.53e-05
R06 N05 N06 7.51e+00
C07 N06 N07 3.13e-05
R07 N06 N07 7.66e-01
C08 N07 N08 3.55e-05
R08 N07 N08 6.45e-02
C09 N08 N09 4.86e-05
R09 N08 N09 5.80e-03
L10 N09 N10 1.01e-11
R10 N09 N10 5.45e-02
L11 N10 N11 6.36e-11
R11 N10 N11 2.20e-02
C12 N11 N12 1.85e-06
L12 N11 N12 1.36e-11
R12 N11 N12 5.66e-03
C13 N12 N13 9.93e-07
L13 N12 N13 9.81e-12
R13 N12 N13 7.08e-03
C14 N13 N14 3.78e-10
L14 N13 N14 7.90e-13
R14 N13 N14 1.00e+05
C15 N14 Port2 5.12e-11
L15 N14 Port2 5.20e-12
R15 N14 Port2 2.58e-01
.ENDS LLL153C80G105ME21
*----------------------------------------------------------------------
* SPICE Model generated by Murata Manufacturing Co., Ltd.
* Copyright(C) Murata Manufacturing Co., Ltd.
* Description :0510M(0204)/X6S(-55to105[deg])/1.00e-01[uF]/6.3[V]
* Murata P/N :LLL153C80J104ME01
* Property : C = 1.00e-01[uF]
*----------------------------------------------------------------------
* Applicable Conditions:
*   Frequency Range = 100[kHz]-6[GHz]
*   Temperature = 25 degC
*   DC Bias Voltage = 0V
*   Small Signal Operation
*----------------------------------------------------------------------
.SUBCKT LLL153C80J104ME01 Port1 Port2
C01 Port1 N01 7.60e-08
R01 Port1 N01 5.00e+08
L02 N01 N02 4.41e-11
R03 N02 N03 1.36e-02
C04 N03 N04 7.70e-07
R04 N03 N04 4.03e+00
C05 N04 N05 1.09e-06
R05 N04 N05 1.19e+00
C06 N05 N06 1.54e-06
R06 N05 N06 2.35e-01
C07 N06 N07 1.45e-06
R07 N06 N07 6.93e-02
C08 N07 N08 9.27e-07
R08 N07 N08 2.12e-02
L09 N08 N09 2.43e-11
R09 N08 N09 5.83e-02
L10 N09 N10 2.55e-12
R10 N09 N10 2.41e-02
C11 N10 N11 1.54e-07
L11 N10 N11 6.85e-12
R11 N10 N11 1.94e-02
C12 N11 N12 5.43e-08
L12 N11 N12 6.40e-12
R12 N11 N12 2.63e-02
C13 N12 N13 1.67e-11
L13 N12 N13 1.66e-11
R13 N12 N13 1.00e+05
C14 N13 Port2 4.14e-11
L14 N13 Port2 6.63e-12
R14 N13 Port2 7.89e-01
.ENDS LLL153C80J104ME01
*----------------------------------------------------------------------
* SPICE Model generated by Murata Manufacturing Co., Ltd.
* Copyright(C) Murata Manufacturing Co., Ltd.
* Description :0510M(0204)/X6S(-55to105[deg])/2.20e-01[uF]/6.3[V]
* Murata P/N :LLL153C80J224ME14
* Property : C = 2.20e-01[uF]
*----------------------------------------------------------------------
* Applicable Conditions:
*   Frequency Range = 100[kHz]-6[GHz]
*   Temperature = 25 degC
*   DC Bias Voltage = 0V
*   Small Signal Operation
*----------------------------------------------------------------------
.SUBCKT LLL153C80J224ME14 Port1 Port2
C01 Port1 N01 1.51e-07
R01 Port1 N01 2.27e+08
L02 N01 N02 4.00e-11
R03 N02 N03 9.83e-03
C04 N03 N04 1.15e-06
R04 N03 N04 2.64e+00
C05 N04 N05 2.48e-06
R05 N04 N05 2.41e-01
C06 N05 N06 2.92e-06
R06 N05 N06 3.86e-02
C07 N06 N07 2.27e-06
R07 N06 N07 1.19e-02
L08 N07 N08 1.10e-11
R08 N07 N08 3.73e-02
L09 N08 N09 2.52e-11
R09 N08 N09 2.60e-02
C10 N09 N10 3.07e-07
L10 N09 N10 8.65e-12
R10 N09 N10 1.49e-02
C11 N10 N11 1.12e-07
L11 N10 N11 8.82e-12
R11 N10 N11 2.12e-02
C12 N11 N12 2.15e-11
L12 N11 N12 1.30e-11
R12 N11 N12 1.00e+05
C13 N12 Port2 1.81e-11
L13 N12 Port2 9.44e-12
R13 N12 Port2 5.91e-01
.ENDS LLL153C80J224ME14
*----------------------------------------------------------------------
* SPICE Model generated by Murata Manufacturing Co., Ltd.
* Copyright(C) Murata Manufacturing Co., Ltd.
* Description :0510M(0204)/X5R(-55to85[deg])/1.00e-01[uF]/10[V]
* Murata P/N :LLL153R61A104ME01
* Property : C = 1.00e-01[uF]
*----------------------------------------------------------------------
* Applicable Conditions:
*   Frequency Range = 100[kHz]-6[GHz]
*   Temperature = 25 degC
*   DC Bias Voltage = 0V
*   Small Signal Operation
*----------------------------------------------------------------------
.SUBCKT LLL153R61A104ME01 Port1 Port2
C01 Port1 N01 7.60e-08
R01 Port1 N01 5.00e+08
L02 N01 N02 4.41e-11
R03 N02 N03 1.36e-02
C04 N03 N04 7.70e-07
R04 N03 N04 4.03e+00
C05 N04 N05 1.09e-06
R05 N04 N05 1.19e+00
C06 N05 N06 1.54e-06
R06 N05 N06 2.35e-01
C07 N06 N07 1.45e-06
R07 N06 N07 6.93e-02
C08 N07 N08 9.27e-07
R08 N07 N08 2.12e-02
L09 N08 N09 2.43e-11
R09 N08 N09 5.83e-02
L10 N09 N10 2.55e-12
R10 N09 N10 2.41e-02
C11 N10 N11 1.54e-07
L11 N10 N11 6.85e-12
R11 N10 N11 1.94e-02
C12 N11 N12 5.43e-08
L12 N11 N12 6.40e-12
R12 N11 N12 2.63e-02
C13 N12 N13 1.67e-11
L13 N12 N13 1.66e-11
R13 N12 N13 1.00e+05
C14 N13 Port2 4.14e-11
L14 N13 Port2 6.63e-12
R14 N13 Port2 7.89e-01
.ENDS LLL153R61A104ME01
*----------------------------------------------------------------------
* SPICE Model generated by Murata Manufacturing Co., Ltd.
* Copyright(C) Murata Manufacturing Co., Ltd.
* Description :0816M(0306)/X7S(-55to125[deg])/1.00e+00[uF]/4[V]
* Murata P/N :LLL185C70G105ME01
* Property : C = 1.00e+00[uF]
*----------------------------------------------------------------------
* Applicable Conditions:
*   Frequency Range = 100[Hz]-6[GHz]
*   Temperature = 25 degC
*   DC Bias Voltage = 0V
*   Small Signal Operation
*----------------------------------------------------------------------
.SUBCKT LLL185C70G105ME01 Port1 Port2
C01 Port1 N01 7.46e-07
R01 Port1 N01 5.00e+07
L02 N01 N02 5.50e-11
R03 N02 N03 4.35e-03
C04 N03 N04 2.59e-05
R04 N03 N04 7.90e+01
C05 N04 N05 2.29e-05
R05 N04 N05 1.29e+01
C06 N05 N06 1.82e-05
R06 N05 N06 2.09e+00
C07 N06 N07 1.96e-05
R07 N06 N07 2.68e-01
C08 N07 N08 1.89e-05
R08 N07 N08 5.66e-02
C09 N08 N09 1.29e-05
R09 N08 N09 1.43e-02
C10 N09 N10 2.27e-05
R10 N09 N10 3.11e-03
L11 N10 N11 5.54e-12
R11 N10 N11 3.18e-02
L12 N11 N12 3.37e-11
R12 N11 N12 2.48e-02
C13 N12 N13 1.01e-06
L13 N12 N13 2.02e-11
R13 N12 N13 1.51e-02
C14 N13 N14 4.48e-07
L14 N13 N14 1.60e-11
R14 N13 N14 1.60e-02
C15 N14 N15 5.20e-11
L15 N14 N15 6.00e-12
R15 N14 N15 1.00e+05
C16 N15 Port2 2.86e-11
L16 N15 Port2 9.80e-12
R16 N15 Port2 1.02e+00
.ENDS LLL185C70G105ME01
*----------------------------------------------------------------------
* SPICE Model generated by Murata Manufacturing Co., Ltd.
* Copyright(C) Murata Manufacturing Co., Ltd.
* Description :0816M(0306)/X7S(-55to125[deg])/2.20e-01[uF]/4[V]
* Murata P/N :LLL185C70G224MA11
* Property : C = 2.20e-01[uF]
*----------------------------------------------------------------------
* Applicable Conditions:
*   Frequency Range = 100[kHz]-6[GHz]
*   Temperature = 25 degC
*   DC Bias Voltage = 0V
*   Small Signal Operation
*----------------------------------------------------------------------
.SUBCKT LLL185C70G224MA11 Port1 Port2
C01 Port1 N01 2.01e-07
R01 Port1 N01 2.27e+09
L02 N01 N02 3.31e-11
R03 N02 N03 8.25e-03
C04 N03 N04 1.08e-05
R04 N03 N04 9.09e-01
C05 N04 N05 1.34e-05
R05 N04 N05 1.42e-01
C06 N05 N06 1.36e-05
R06 N05 N06 2.32e-02
C07 N06 N07 1.01e-05
R07 N06 N07 4.52e-03
L08 N07 N08 7.25e-12
R08 N07 N08 6.07e-02
L09 N08 N09 3.13e-11
R09 N08 N09 2.82e-02
C10 N09 N10 4.41e-07
L10 N09 N10 7.25e-12
R10 N09 N10 5.93e-03
C11 N10 Port2 4.26e-12
L11 N10 Port2 6.54e-11
R11 N10 Port2 1.02e+01
.ENDS LLL185C70G224MA11
*----------------------------------------------------------------------
* SPICE Model generated by Murata Manufacturing Co., Ltd.
* Copyright(C) Murata Manufacturing Co., Ltd.
* Description :0816M(0306)/X7S(-55to125[deg])/2.20e+00[uF]/4[V]
* Murata P/N :LLL185C70G225ME01
* Property : C = 2.20e+00[uF]
*----------------------------------------------------------------------
* Applicable Conditions:
*   Frequency Range = 100[Hz]-6[GHz]
*   Temperature = 25 degC
*   DC Bias Voltage = 0V
*   Small Signal Operation
*----------------------------------------------------------------------
.SUBCKT LLL185C70G225ME01 Port1 Port2
C01 Port1 N01 1.72e-06
R01 Port1 N01 2.27e+07
L02 N01 N02 5.23e-11
R03 N02 N03 3.39e-03
C04 N03 N04 2.38e-05
R04 N03 N04 2.13e+02
C05 N04 N05 4.32e-05
R05 N04 N05 9.07e+00
C06 N05 N06 4.06e-05
R06 N05 N06 9.99e-01
C07 N06 N07 3.49e-05
R07 N06 N07 1.18e-01
C08 N07 N08 3.30e-05
R08 N07 N08 1.33e-02
C09 N08 N09 4.85e-05
R09 N08 N09 2.85e-03
L10 N09 N10 1.28e-11
R10 N09 N10 1.61e-01
L11 N10 N11 9.37e-12
R11 N10 N11 3.12e-02
L12 N11 N12 6.63e-11
R12 N11 N12 2.02e-02
C13 N12 N13 3.11e-06
L13 N12 N13 2.08e-11
R13 N12 N13 8.55e-03
C14 N13 N14 1.00e-06
L14 N13 N14 2.45e-11
R14 N13 N14 8.87e-03
C15 N14 Port2 1.29e-10
L15 N14 Port2 2.64e-12
R15 N14 Port2 3.50e-01
.ENDS LLL185C70G225ME01
*----------------------------------------------------------------------
* SPICE Model generated by Murata Manufacturing Co., Ltd.
* Copyright(C) Murata Manufacturing Co., Ltd.
* Description :0816M(0306)/X7S(-55to125[deg])/4.70e-01[uF]/4[V]
* Murata P/N :LLL185C70G474MA01
* Property : C = 4.70e-01[uF]
*----------------------------------------------------------------------
* Applicable Conditions:
*   Frequency Range = 100[kHz]-6[GHz]
*   Temperature = 25 degC
*   DC Bias Voltage = 0V
*   Small Signal Operation
*----------------------------------------------------------------------
.SUBCKT LLL185C70G474MA01 Port1 Port2
C01 Port1 N01 4.17e-07
R01 Port1 N01 1.06e+09
L02 N01 N02 3.40e-11
R03 N02 N03 5.44e-03
C04 N03 N04 3.15e-05
R04 N03 N04 1.27e-01
C05 N04 N05 4.31e-05
R05 N04 N05 1.67e-02
C06 N05 N06 3.84e-05
R06 N05 N06 4.02e-03
L07 N06 N07 1.42e-11
R07 N06 N07 8.75e-02
L08 N07 N08 3.57e-11
R08 N07 N08 2.34e-02
C09 N08 N09 9.86e-07
L09 N08 N09 1.39e-11
R09 N08 N09 9.05e-03
C10 N09 N10 2.64e-07
L10 N09 N10 1.70e-11
R10 N09 N10 9.63e-03
C11 N10 N11 1.97e-11
L11 N10 N11 1.73e-11
R11 N10 N11 2.21e+00
C12 N11 Port2 1.50e-11
L12 N11 Port2 1.80e-11
R12 N11 Port2 1.00e+05
.ENDS LLL185C70G474MA01
*----------------------------------------------------------------------
* SPICE Model generated by Murata Manufacturing Co., Ltd.
* Copyright(C) Murata Manufacturing Co., Ltd.
* Description :0816M(0306)/X7S(-55to125[deg])/1.00e+00[uF]/6.3[V]
* Murata P/N :LLL185C70J105ME14
* Property : C = 1.00e+00[uF]
*----------------------------------------------------------------------
* Applicable Conditions:
*   Frequency Range = 100[Hz]-6[GHz]
*   Temperature = 25 degC
*   DC Bias Voltage = 0V
*   Small Signal Operation
*----------------------------------------------------------------------
.SUBCKT LLL185C70J105ME14 Port1 Port2
C01 Port1 N01 7.46e-07
R01 Port1 N01 5.00e+07
L02 N01 N02 4.80e-11
R03 N02 N03 4.77e-03
C04 N03 N04 2.78e-05
R04 N03 N04 1.17e+02
C05 N04 N05 2.66e-05
R05 N04 N05 1.50e+01
C06 N05 N06 2.26e-05
R06 N05 N06 2.22e+00
C07 N06 N07 3.82e-05
R07 N06 N07 2.60e-01
C08 N07 N08 2.14e-05
R08 N07 N08 1.18e-01
C09 N08 N09 1.50e-05
R09 N08 N09 2.64e-02
C10 N09 N10 1.89e-05
R10 N09 N10 4.40e-03
L11 N10 N11 8.93e-12
R11 N10 N11 5.12e-02
L12 N11 N12 4.13e-11
R12 N11 N12 2.84e-02
C13 N12 N13 1.37e-06
L13 N12 N13 1.81e-11
R13 N12 N13 1.34e-02
C14 N13 N14 4.43e-07
L14 N13 N14 1.97e-11
R14 N13 N14 1.42e-02
C15 N14 N15 5.20e-11
L15 N14 N15 6.00e-12
R15 N14 N15 1.00e+05
C16 N15 Port2 1.75e-11
L16 N15 Port2 1.33e-11
R16 N15 Port2 1.25e+00
.ENDS LLL185C70J105ME14
*----------------------------------------------------------------------
* SPICE Model generated by Murata Manufacturing Co., Ltd.
* Copyright(C) Murata Manufacturing Co., Ltd.
* Description :0816M(0306)/X7R(-55to125[deg])/1.00e-01[uF]/10[V]
* Murata P/N :LLL185R71A104MA01
* Property : C = 1.00e-01[uF]
*----------------------------------------------------------------------
* Applicable Conditions:
*   Frequency Range = 100[kHz]-6[GHz]
*   Temperature = 25 degC
*   DC Bias Voltage = 0V
*   Small Signal Operation
*----------------------------------------------------------------------
.SUBCKT LLL185R71A104MA01 Port1 Port2
C01 Port1 N01 9.20e-08
R01 Port1 N01 5.00e+09
L02 N01 N02 4.10e-11
R03 N02 N03 7.00e-03
C04 N03 N04 5.11e-06
R04 N03 N04 1.04e+00
C05 N04 N05 1.02e-05
R05 N04 N05 1.16e-01
C06 N05 N06 7.05e-06
R06 N05 N06 3.29e-02
C07 N06 N07 6.16e-06
R07 N06 N07 5.43e-03
L08 N07 N08 3.65e-11
R08 N07 N08 5.73e-02
L09 N08 N09 1.92e-13
R09 N08 N09 2.41e-03
C10 N09 N10 1.65e-07
L10 N09 N10 1.57e-11
R10 N09 N10 2.58e-02
C11 N10 N11 8.15e-08
L11 N10 N11 1.05e-11
R11 N10 N11 2.31e-02
C12 N11 Port2 6.35e-12
L12 N11 Port2 5.10e-11
R12 N11 Port2 9.53e+00
.ENDS LLL185R71A104MA01
*----------------------------------------------------------------------
* SPICE Model generated by Murata Manufacturing Co., Ltd.
* Copyright(C) Murata Manufacturing Co., Ltd.
* Description :0816M(0306)/X7R(-55to125[deg])/1.00e-01[uF]/10[V]
* Murata P/N :LLL185R71A104MA11
* Property : C = 1.00e-01[uF]
*----------------------------------------------------------------------
* Applicable Conditions:
*   Frequency Range = 100[kHz]-6[GHz]
*   Temperature = 25 degC
*   DC Bias Voltage = 0V
*   Small Signal Operation
*----------------------------------------------------------------------
.SUBCKT LLL185R71A104MA11 Port1 Port2
C01 Port1 N01 9.03e-08
R01 Port1 N01 5.00e+09
L02 N01 N02 1.60e-11
R03 N02 N03 7.38e-03
C04 N03 N04 5.59e-06
R04 N03 N04 1.39e+00
C05 N04 N05 7.15e-06
R05 N04 N05 2.13e-01
C06 N05 N06 6.56e-06
R06 N05 N06 3.38e-02
C07 N06 N07 8.61e-06
R07 N06 N07 5.00e-03
L08 N07 N08 3.24e-11
R08 N07 N08 5.83e-02
C09 N08 N09 1.55e-07
L09 N08 N09 1.60e-11
R09 N08 N09 2.57e-02
C10 N09 N10 6.78e-08
L10 N09 N10 1.15e-11
R10 N09 N10 2.48e-02
C11 N10 N11 8.03e-12
L11 N10 N11 3.52e-11
R11 N10 N11 5.89e+00
C12 N11 Port2 7.50e-12
L12 N11 Port2 3.00e-11
R12 N11 Port2 1.00e+05
.ENDS LLL185R71A104MA11
*----------------------------------------------------------------------
* SPICE Model generated by Murata Manufacturing Co., Ltd.
* Copyright(C) Murata Manufacturing Co., Ltd.
* Description :0816M(0306)/X7R(-55to125[deg])/2.20e-01[uF]/10[V]
* Murata P/N :LLL185R71A224MA01
* Property : C = 2.20e-01[uF]
*----------------------------------------------------------------------
* Applicable Conditions:
*   Frequency Range = 100[kHz]-6[GHz]
*   Temperature = 25 degC
*   DC Bias Voltage = 0V
*   Small Signal Operation
*----------------------------------------------------------------------
.SUBCKT LLL185R71A224MA01 Port1 Port2
C01 Port1 N01 2.02e-07
R01 Port1 N01 2.27e+09
L02 N01 N02 8.00e-12
R03 N02 N03 6.24e-03
C04 N03 N04 1.62e-05
R04 N03 N04 4.94e-01
C05 N04 N05 1.84e-05
R05 N04 N05 8.65e-02
C06 N05 N06 1.64e-05
R06 N05 N06 1.42e-02
C07 N06 N07 1.65e-05
R07 N06 N07 2.02e-03
L08 N07 N08 7.05e-12
R08 N07 N08 6.64e-02
L09 N08 N09 2.76e-11
R09 N08 N09 3.77e-02
C10 N09 N10 4.05e-07
L10 N09 N10 1.55e-11
R10 N09 N10 1.61e-02
C11 N10 N11 1.01e-07
L11 N10 N11 1.91e-11
R11 N10 N11 1.65e-02
C12 N11 N12 1.20e-11
L12 N11 N12 2.50e-11
R12 N11 N12 2.34e+00
C13 N12 Port2 5.00e-12
L13 N12 Port2 4.50e-11
R13 N12 Port2 1.00e+05
.ENDS LLL185R71A224MA01
*----------------------------------------------------------------------
* SPICE Model generated by Murata Manufacturing Co., Ltd.
* Copyright(C) Murata Manufacturing Co., Ltd.
* Description :0816M(0306)/X7R(-55to125[deg])/1.00e-02[uF]/16[V]
* Murata P/N :LLL185R71C103MA01
* Property : C = 1.00e-02[uF]
*----------------------------------------------------------------------
* Applicable Conditions:
*   Frequency Range = 100[kHz]-6[GHz]
*   Temperature = 25 degC
*   DC Bias Voltage = 0V
*   Small Signal Operation
*----------------------------------------------------------------------
.SUBCKT LLL185R71C103MA01 Port1 Port2
C01 Port1 N01 1.00e-08
R01 Port1 N01 1.00e+10
L02 N01 N02 1.96e-11
R03 N02 N03 2.58e-02
C04 N03 N04 5.79e-07
R04 N03 N04 1.38e+01
C05 N04 N05 8.63e-07
R05 N04 N05 1.68e+00
C06 N05 N06 6.26e-07
R06 N05 N06 3.28e-01
C07 N06 N07 6.31e-07
R07 N06 N07 6.49e-02
C08 N07 N08 5.89e-07
R08 N07 N08 1.35e-02
L09 N08 N09 1.61e-11
R09 N08 N09 1.03e-01
C10 N09 N10 1.85e-08
L10 N09 N10 8.99e-12
R10 N09 N10 5.87e-02
C11 N10 N11 6.65e-09
L11 N10 N11 7.09e-12
R11 N10 N11 5.76e-02
C12 N11 Port2 4.52e-12
L12 N11 Port2 7.50e-11
R12 N11 Port2 1.31e+01
.ENDS LLL185R71C103MA01
*----------------------------------------------------------------------
* SPICE Model generated by Murata Manufacturing Co., Ltd.
* Copyright(C) Murata Manufacturing Co., Ltd.
* Description :0816M(0306)/X7R(-55to125[deg])/2.20e-02[uF]/16[V]
* Murata P/N :LLL185R71C223MA01
* Property : C = 2.20e-02[uF]
*----------------------------------------------------------------------
* Applicable Conditions:
*   Frequency Range = 100[kHz]-6[GHz]
*   Temperature = 25 degC
*   DC Bias Voltage = 0V
*   Small Signal Operation
*----------------------------------------------------------------------
.SUBCKT LLL185R71C223MA01 Port1 Port2
C01 Port1 N01 2.14e-08
R01 Port1 N01 1.00e+10
L02 N01 N02 4.53e-11
R03 N02 N03 2.19e-02
C04 N03 N04 1.33e-06
R04 N03 N04 5.86e+00
C05 N04 N05 1.47e-06
R05 N04 N05 8.42e-01
C06 N05 N06 1.35e-06
R06 N05 N06 1.39e-01
C07 N06 N07 1.07e-06
R07 N06 N07 2.28e-02
L08 N07 N08 1.87e-11
R08 N07 N08 5.22e-02
C09 N08 N09 7.74e-08
L09 N08 N09 4.07e-12
R09 N08 N09 1.55e-02
C10 N09 N10 1.19e-08
L10 N09 N10 6.42e-12
R10 N09 N10 2.48e-02
C11 N10 Port2 5.24e-12
L11 N10 Port2 7.06e-11
R11 N10 Port2 9.05e+00
.ENDS LLL185R71C223MA01
*----------------------------------------------------------------------
* SPICE Model generated by Murata Manufacturing Co., Ltd.
* Copyright(C) Murata Manufacturing Co., Ltd.
* Description :0816M(0306)/X7R(-55to125[deg])/2.20e-02[uF]/16[V]
* Murata P/N :LLL185R71C223MA11
* Property : C = 2.20e-02[uF]
*----------------------------------------------------------------------
* Applicable Conditions:
*   Frequency Range = 100[kHz]-6[GHz]
*   Temperature = 25 degC
*   DC Bias Voltage = 0V
*   Small Signal Operation
*----------------------------------------------------------------------
.SUBCKT LLL185R71C223MA11 Port1 Port2
C01 Port1 N01 2.10e-08
R01 Port1 N01 1.00e+10
L02 N01 N02 4.30e-11
R03 N02 N03 2.17e-02
C04 N03 N04 1.36e-06
R04 N03 N04 6.45e+00
C05 N04 N05 1.47e-06
R05 N04 N05 1.01e+00
C06 N05 N06 1.24e-06
R06 N05 N06 1.73e-01
C07 N06 N07 1.05e-06
R07 N06 N07 2.66e-02
L08 N07 N08 1.78e-11
R08 N07 N08 8.59e-02
C09 N08 N09 4.56e-08
L09 N08 N09 6.23e-12
R09 N08 N09 2.00e-02
C10 N09 N10 1.13e-08
L10 N09 N10 6.51e-12
R10 N09 N10 2.69e-02
C11 N10 Port2 6.00e-12
L11 N10 Port2 6.00e-11
R11 N10 Port2 8.68e+00
.ENDS LLL185R71C223MA11
*----------------------------------------------------------------------
* SPICE Model generated by Murata Manufacturing Co., Ltd.
* Copyright(C) Murata Manufacturing Co., Ltd.
* Description :0816M(0306)/X7R(-55to125[deg])/4.70e-02[uF]/16[V]
* Murata P/N :LLL185R71C473MA01
* Property : C = 4.70e-02[uF]
*----------------------------------------------------------------------
* Applicable Conditions:
*   Frequency Range = 100[kHz]-6[GHz]
*   Temperature = 25 degC
*   DC Bias Voltage = 0V
*   Small Signal Operation
*----------------------------------------------------------------------
.SUBCKT LLL185R71C473MA01 Port1 Port2
C01 Port1 N01 4.36e-08
R01 Port1 N01 1.00e+10
L02 N01 N02 4.20e-11
R03 N02 N03 1.09e-02
C04 N03 N04 2.90e-06
R04 N03 N04 2.69e+00
C05 N04 N05 3.19e-06
R05 N04 N05 3.88e-01
C06 N05 N06 3.23e-06
R06 N05 N06 6.01e-02
C07 N06 N07 2.88e-06
R07 N06 N07 1.29e-02
L08 N07 N08 2.96e-11
R08 N07 N08 7.65e-02
C09 N08 N09 8.21e-08
L09 N08 N09 1.35e-11
R09 N08 N09 3.62e-02
C10 N09 N10 3.36e-08
L10 N09 N10 1.01e-11
R10 N09 N10 3.41e-02
C11 N10 Port2 6.01e-12
L11 N10 Port2 5.00e-11
R11 N10 Port2 1.39e+01
.ENDS LLL185R71C473MA01
*----------------------------------------------------------------------
* SPICE Model generated by Murata Manufacturing Co., Ltd.
* Copyright(C) Murata Manufacturing Co., Ltd.
* Description :0816M(0306)/X7R(-55to125[deg])/4.70e-02[uF]/16[V]
* Murata P/N :LLL185R71C473MA11
* Property : C = 4.70e-02[uF]
*----------------------------------------------------------------------
* Applicable Conditions:
*   Frequency Range = 100[kHz]-6[GHz]
*   Temperature = 25 degC
*   DC Bias Voltage = 0V
*   Small Signal Operation
*----------------------------------------------------------------------
.SUBCKT LLL185R71C473MA11 Port1 Port2
C01 Port1 N01 4.50e-08
R01 Port1 N01 1.00e+10
L02 N01 N02 2.80e-11
R03 N02 N03 1.07e-02
C04 N03 N04 2.92e-06
R04 N03 N04 2.73e+00
C05 N04 N05 3.43e-06
R05 N04 N05 4.05e-01
C06 N05 N06 3.23e-06
R06 N05 N06 6.57e-02
C07 N06 N07 2.80e-06
R07 N06 N07 1.26e-02
L08 N07 N08 2.86e-11
R08 N07 N08 8.29e-02
C09 N08 N09 7.27e-08
L09 N08 N09 1.52e-11
R09 N08 N09 4.01e-02
C10 N09 N10 3.40e-08
L10 N09 N10 9.51e-12
R10 N09 N10 3.61e-02
C11 N10 N11 1.30e-11
L11 N10 N11 2.00e-11
R11 N10 N11 1.00e+05
C12 N11 Port2 1.00e-11
L12 N11 Port2 2.60e-11
R12 N11 Port2 4.27e+00
.ENDS LLL185R71C473MA11
*----------------------------------------------------------------------
* SPICE Model generated by Murata Manufacturing Co., Ltd.
* Copyright(C) Murata Manufacturing Co., Ltd.
* Description :0816M(0306)/X7R(-55to125[deg])/1.00e-02[uF]/25[V]
* Murata P/N :LLL185R71E103MA01
* Property : C = 1.00e-02[uF]
*----------------------------------------------------------------------
* Applicable Conditions:
*   Frequency Range = 100[kHz]-6[GHz]
*   Temperature = 25 degC
*   DC Bias Voltage = 0V
*   Small Signal Operation
*----------------------------------------------------------------------
.SUBCKT LLL185R71E103MA01 Port1 Port2
C01 Port1 N01 9.88e-09
R01 Port1 N01 1.00e+10
L02 N01 N02 3.00e-11
R03 N02 N03 2.58e-02
C04 N03 N04 5.10e-07
R04 N03 N04 1.24e+01
C05 N04 N05 8.71e-07
R05 N04 N05 1.15e+00
C06 N05 N06 1.17e-06
R06 N05 N06 1.80e-01
C07 N06 N07 6.53e-07
R07 N06 N07 9.07e-02
C08 N07 N08 6.09e-07
R08 N07 N08 1.80e-02
L09 N08 N09 2.71e-11
R09 N08 N09 1.41e-01
C10 N09 N10 1.60e-08
L10 N09 N10 1.40e-11
R10 N09 N10 9.40e-02
C11 N10 N11 7.93e-09
L11 N10 N11 8.87e-12
R11 N10 N11 7.22e-02
C12 N11 N12 2.00e-11
L12 N11 N12 1.40e-11
R12 N11 N12 1.00e+05
C13 N12 Port2 1.06e-11
L13 N12 Port2 2.50e-11
R13 N12 Port2 3.62e+00
.ENDS LLL185R71E103MA01
*----------------------------------------------------------------------
* SPICE Model generated by Murata Manufacturing Co., Ltd.
* Copyright(C) Murata Manufacturing Co., Ltd.
* Description :0816M(0306)/X7R(-55to125[deg])/1.00e-02[uF]/25[V]
* Murata P/N :LLL185R71E103MA11
* Property : C = 1.00e-02[uF]
*----------------------------------------------------------------------
* Applicable Conditions:
*   Frequency Range = 100[kHz]-6[GHz]
*   Temperature = 25 degC
*   DC Bias Voltage = 0V
*   Small Signal Operation
*----------------------------------------------------------------------
.SUBCKT LLL185R71E103MA11 Port1 Port2
C01 Port1 N01 9.42e-09
R01 Port1 N01 1.00e+10
L02 N01 N02 2.70e-11
R03 N02 N03 2.69e-02
C04 N03 N04 5.52e-07
R04 N03 N04 1.78e+01
C05 N04 N05 6.96e-07
R05 N04 N05 2.76e+00
C06 N05 N06 6.14e-07
R06 N05 N06 4.16e-01
C07 N06 N07 6.74e-07
R07 N06 N07 6.75e-02
C08 N07 N08 5.94e-07
R08 N07 N08 1.84e-02
L09 N08 N09 2.37e-11
R09 N08 N09 2.50e-01
C10 N09 N10 1.69e-08
L10 N09 N10 1.03e-11
R10 N09 N10 5.85e-02
C11 N10 N11 4.47e-09
L11 N10 N11 1.13e-11
R11 N10 N11 7.01e-02
C12 N11 N12 7.63e-12
L12 N11 N12 4.07e-11
R12 N11 N12 5.99e+00
C13 N12 Port2 2.50e-11
L13 N12 Port2 1.20e-11
R13 N12 Port2 1.00e+05
.ENDS LLL185R71E103MA11
*----------------------------------------------------------------------
* SPICE Model generated by Murata Manufacturing Co., Ltd.
* Copyright(C) Murata Manufacturing Co., Ltd.
* Description :0816M(0306)/X7R(-55to125[deg])/2.20e-02[uF]/25[V]
* Murata P/N :LLL185R71E223MA01
* Property : C = 2.20e-02[uF]
*----------------------------------------------------------------------
* Applicable Conditions:
*   Frequency Range = 100[kHz]-6[GHz]
*   Temperature = 25 degC
*   DC Bias Voltage = 0V
*   Small Signal Operation
*----------------------------------------------------------------------
.SUBCKT LLL185R71E223MA01 Port1 Port2
C01 Port1 N01 2.10e-08
R01 Port1 N01 1.00e+10
L02 N01 N02 4.27e-11
R03 N02 N03 1.99e-02
C04 N03 N04 1.25e-06
R04 N03 N04 6.36e+00
C05 N04 N05 1.65e-06
R05 N04 N05 7.48e-01
C06 N05 N06 1.38e-06
R06 N05 N06 1.35e-01
C07 N06 N07 1.10e-06
R07 N06 N07 2.21e-02
L08 N07 N08 2.05e-11
R08 N07 N08 1.17e-01
C09 N08 N09 3.73e-08
L09 N08 N09 1.00e-11
R09 N08 N09 3.39e-02
C10 N09 N10 1.12e-08
L10 N09 N10 9.07e-12
R10 N09 N10 3.74e-02
C11 N10 Port2 5.97e-12
L11 N10 Port2 5.65e-11
R11 N10 Port2 8.53e+00
.ENDS LLL185R71E223MA01
*----------------------------------------------------------------------
* SPICE Model generated by Murata Manufacturing Co., Ltd.
* Copyright(C) Murata Manufacturing Co., Ltd.
* Description :0816M(0306)/X7R(-55to125[deg])/2.20e-03[uF]/50[V]
* Murata P/N :LLL185R71H222MA01
* Property : C = 2.20e-03[uF]
*----------------------------------------------------------------------
* Applicable Conditions:
*   Frequency Range = 100[kHz]-6[GHz]
*   Temperature = 25 degC
*   DC Bias Voltage = 0V
*   Small Signal Operation
*----------------------------------------------------------------------
.SUBCKT LLL185R71H222MA01 Port1 Port2
C01 Port1 N01 2.03e-09
R01 Port1 N01 1.00e+10
L02 N01 N02 3.94e-11
R03 N02 N03 5.86e-02
C04 N03 N04 6.28e-08
R04 N03 N04 2.54e+01
C05 N04 N05 1.11e-07
R05 N04 N05 9.55e-01
C06 N05 N06 1.03e-07
R06 N05 N06 1.53e-01
C07 N06 N07 3.92e-08
R07 N06 N07 5.28e-02
L08 N07 N08 1.43e-11
R08 N07 N08 2.99e-01
C09 N08 N09 3.05e-09
L09 N08 N09 1.07e-11
R09 N08 N09 1.28e-01
C10 N09 N10 9.99e-10
L10 N09 N10 9.90e-12
R10 N09 N10 1.71e-01
C11 N10 Port2 8.34e-12
L11 N10 Port2 3.88e-11
R11 N10 Port2 5.61e+00
.ENDS LLL185R71H222MA01
*----------------------------------------------------------------------
* SPICE Model generated by Murata Manufacturing Co., Ltd.
* Copyright(C) Murata Manufacturing Co., Ltd.
* Description :0816M(0306)/X7R(-55to125[deg])/4.70e-03[uF]/50[V]
* Murata P/N :LLL185R71H472MA01
* Property : C = 4.70e-03[uF]
*----------------------------------------------------------------------
* Applicable Conditions:
*   Frequency Range = 100[kHz]-6[GHz]
*   Temperature = 25 degC
*   DC Bias Voltage = 0V
*   Small Signal Operation
*----------------------------------------------------------------------
.SUBCKT LLL185R71H472MA01 Port1 Port2
C01 Port1 N01 4.57e-09
R01 Port1 N01 1.00e+10
L02 N01 N02 3.33e-11
R03 N02 N03 3.60e-02
C04 N03 N04 2.00e-07
R04 N03 N04 7.97e+00
C05 N04 N05 3.59e-07
R05 N04 N05 4.43e-01
C06 N05 N06 1.94e-07
R06 N05 N06 1.17e-01
C07 N06 N07 9.69e-08
R07 N06 N07 1.83e-02
L08 N07 N08 1.64e-11
R08 N07 N08 1.54e-01
C09 N08 N09 6.76e-09
L09 N08 N09 1.04e-11
R09 N08 N09 8.72e-02
C10 N09 N10 2.28e-09
L10 N09 N10 7.70e-12
R10 N09 N10 9.95e-02
C11 N10 Port2 5.53e-12
L11 N10 Port2 5.91e-11
R11 N10 Port2 8.35e+00
.ENDS LLL185R71H472MA01
*----------------------------------------------------------------------
* SPICE Model generated by Murata Manufacturing Co., Ltd.
* Copyright(C) Murata Manufacturing Co., Ltd.
* Description :0610M(02404)/X5R(-55to85[deg])/4.30e+00[uF]/4[V]
* Murata P/N :LLL1U4R60G435ME22
* Property : C = 4.30e+00[uF]
*----------------------------------------------------------------------
* Applicable Conditions:
*   Frequency Range = 100[Hz]-6[GHz]
*   Temperature = 25 degC
*   DC Bias Voltage = 0V
*   Small Signal Operation