*----------------------------------------------------------------------
* SPICE Model generated by Murata Manufacturing Co., Ltd.
* Copyright(C) Murata Manufacturing Co., Ltd.
* MURATA P/N : LQG15HN10NG02
* Property : L = 10[nH]
*----------------------------------------------------------------------
* Applicable Conditions:
*   Frequency Range = 1MHz - 20GHz
*   Temperature = 25 degC
*   DC Bias Current = 0 A
*   Small Signal Operation
*----------------------------------------------------------------------
.SUBCKT LQG15HN10NG02 port1 port2
C1 port1 port2 2.24e-14
L2 port1 1 1.17e-8
R2 1 port2 1.91e-1
R3 port1 port2 1.06e+4
L4 port1 2 2.34e-7
R4 2 port2 850
L5 port1 3 9.53e-8
R5 3 port2 47.3
L6 port1 4 9.15e-8
R6 4 port2 8.80
L7 port1 5 1.64e-9
C7 5 6 6.46e-14
R7 6 port2 3.13
L8 port1 7 8.03e-10
C8 7 8 5.80e-14
R8 8 port2 3.18
.ENDS LQG15HN10NG02
*----------------------------------------------------------------------
*----------------------------------------------------------------------
* SPICE Model generated by Murata Manufacturing Co., Ltd.
* Copyright(C) Murata Manufacturing Co., Ltd.
* MURATA P/N : LQG15HN10NH02
* Property : L = 10[nH]
*----------------------------------------------------------------------
* Applicable Conditions:
*   Frequency Range = 1MHz - 20GHz
*   Temperature = 25 degC
*   DC Bias Current = 0 A
*   Small Signal Operation
*----------------------------------------------------------------------
.SUBCKT LQG15HN10NH02 port1 port2
C1 port1 port2 2.24e-14
L2 port1 1 1.17e-8
R2 1 port2 1.91e-1
R3 port1 port2 1.06e+4
L4 port1 2 2.34e-7
R4 2 port2 850
L5 port1 3 9.53e-8
R5 3 port2 47.3
L6 port1 4 9.15e-8
R6 4 port2 8.80
L7 port1 5 1.64e-9
C7 5 6 6.46e-14
R7 6 port2 3.13
L8 port1 7 8.03e-10
C8 7 8 5.80e-14
R8 8 port2 3.18
.ENDS LQG15HN10NH02
*----------------------------------------------------------------------
*----------------------------------------------------------------------
* SPICE Model generated by Murata Manufacturing Co., Ltd.
* Copyright(C) Murata Manufacturing Co., Ltd.
* MURATA P/N : LQG15HN10NJ02
* Property : L = 10[nH]
*----------------------------------------------------------------------
* Applicable Conditions:
*   Frequency Range = 1MHz - 20GHz
*   Temperature = 25 degC
*   DC Bias Current = 0 A
*   Small Signal Operation
*----------------------------------------------------------------------
.SUBCKT LQG15HN10NJ02 port1 port2
C1 port1 port2 2.24e-14
L2 port1 1 1.17e-8
R2 1 port2 1.91e-1
R3 port1 port2 1.06e+4
L4 port1 2 2.34e-7
R4 2 port2 850
L5 port1 3 9.53e-8
R5 3 port2 47.3
L6 port1 4 9.15e-8
R6 4 port2 8.80
L7 port1 5 1.64e-9
C7 5 6 6.46e-14
R7 6 port2 3.13
L8 port1 7 8.03e-10
C8 7 8 5.80e-14
R8 8 port2 3.18
.ENDS LQG15HN10NJ02
*----------------------------------------------------------------------
*----------------------------------------------------------------------
* SPICE Model generated by Murata Manufacturing Co., Ltd.
* Copyright(C) Murata Manufacturing Co., Ltd.
* MURATA P/N : LQG15HN12NG02
* Property : L = 12[nH]
*----------------------------------------------------------------------
* Applicable Conditions:
*   Frequency Range = 1MHz - 20GHz
*   Temperature = 25 degC
*   DC Bias Current = 0 A
*   Small Signal Operation
*----------------------------------------------------------------------
.SUBCKT LQG15HN12NG02 port1 port2
C1 port1 port2 1.70e-14
L2 port1 1 1.50e-8
R2 1 port2 1.87e-1
R3 port1 port2 1.04e+4
L4 port1 2 2.57e-7
R4 2 port2 890
L5 port1 3 1.09e-7
R5 3 port2 54.4
L6 port1 4 7.27e-8
R6 4 port2 5.68
L7 port1 5 1.10e-9
C7 5 6 6.10e-14
R7 6 port2 2.06
L8 port1 7 7.15e-9
C8 7 8 1.86e-14
R8 8 port2 7.68
L9 port1 9 1.27e-9
C9 9 10 9.19e-14
R9 10 port2 3.18
.ENDS LQG15HN12NG02
*----------------------------------------------------------------------
*----------------------------------------------------------------------
* SPICE Model generated by Murata Manufacturing Co., Ltd.
* Copyright(C) Murata Manufacturing Co., Ltd.
* MURATA P/N : LQG15HN12NH02
* Property : L = 12[nH]
*----------------------------------------------------------------------
* Applicable Conditions:
*   Frequency Range = 1MHz - 20GHz
*   Temperature = 25 degC
*   DC Bias Current = 0 A
*   Small Signal Operation
*----------------------------------------------------------------------
.SUBCKT LQG15HN12NH02 port1 port2
C1 port1 port2 1.70e-14
L2 port1 1 1.50e-8
R2 1 port2 1.87e-1
R3 port1 port2 1.04e+4
L4 port1 2 2.57e-7
R4 2 port2 890
L5 port1 3 1.09e-7
R5 3 port2 54.4
L6 port1 4 7.27e-8
R6 4 port2 5.68
L7 port1 5 1.10e-9
C7 5 6 6.10e-14
R7 6 port2 2.06
L8 port1 7 7.15e-9
C8 7 8 1.86e-14
R8 8 port2 7.68
L9 port1 9 1.27e-9
C9 9 10 9.19e-14
R9 10 port2 3.18
.ENDS LQG15HN12NH02
*----------------------------------------------------------------------
*----------------------------------------------------------------------
* SPICE Model generated by Murata Manufacturing Co., Ltd.
* Copyright(C) Murata Manufacturing Co., Ltd.
* MURATA P/N : LQG15HN12NJ02
* Property : L = 12[nH]
*----------------------------------------------------------------------
* Applicable Conditions:
*   Frequency Range = 1MHz - 20GHz
*   Temperature = 25 degC
*   DC Bias Current = 0 A
*   Small Signal Operation
*----------------------------------------------------------------------
.SUBCKT LQG15HN12NJ02 port1 port2
C1 port1 port2 1.70e-14
L2 port1 1 1.50e-8
R2 1 port2 1.87e-1
R3 port1 port2 1.04e+4
L4 port1 2 2.57e-7
R4 2 port2 890
L5 port1 3 1.09e-7
R5 3 port2 54.4
L6 port1 4 7.27e-8
R6 4 port2 5.68
L7 port1 5 1.10e-9
C7 5 6 6.10e-14
R7 6 port2 2.06
L8 port1 7 7.15e-9
C8 7 8 1.86e-14
R8 8 port2 7.68
L9 port1 9 1.27e-9
C9 9 10 9.19e-14
R9 10 port2 3.18
.ENDS LQG15HN12NJ02
*----------------------------------------------------------------------
*----------------------------------------------------------------------
* SPICE Model generated by Murata Manufacturing Co., Ltd.
* Copyright(C) Murata Manufacturing Co., Ltd.
* MURATA P/N : LQG15HN15NG02
* Property : L = 15[nH]
*----------------------------------------------------------------------
* Applicable Conditions:
*   Frequency Range = 1MHz - 20GHz
*   Temperature = 25 degC
*   DC Bias Current = 0 A
*   Small Signal Operation
*----------------------------------------------------------------------
.SUBCKT LQG15HN15NG02 port1 port2
C1 port1 port2 6.17e-15
L2 port1 1 1.95e-8
R2 1 port2 2.05e-1
R3 port1 port2 1.28e+4
L4 port1 2 3.16e-7
R4 2 port2 1.12e+3
L5 port1 3 1.41e-7
R5 3 port2 75.0
L6 port1 4 7.79e-8
R6 4 port2 6.52
L7 port1 5 5.77e-10
C7 5 6 1.28e-13
R7 6 port2 1.03
L8 port1 7 2.60e-9
C8 7 8 5.37e-14
R8 8 port2 5.44
L9 port1 9 1.88e-8
C9 9 10 6.21e-15
R9 10 port2 297
.ENDS LQG15HN15NG02
*----------------------------------------------------------------------
*----------------------------------------------------------------------
* SPICE Model generated by Murata Manufacturing Co., Ltd.
* Copyright(C) Murata Manufacturing Co., Ltd.
* MURATA P/N : LQG15HN15NH02
* Property : L = 15[nH]
*----------------------------------------------------------------------
* Applicable Conditions:
*   Frequency Range = 1MHz - 20GHz
*   Temperature = 25 degC
*   DC Bias Current = 0 A
*   Small Signal Operation
*----------------------------------------------------------------------
.SUBCKT LQG15HN15NH02 port1 port2
C1 port1 port2 6.17e-15
L2 port1 1 1.95e-8
R2 1 port2 2.05e-1
R3 port1 port2 1.28e+4
L4 port1 2 3.16e-7
R4 2 port2 1.12e+3
L5 port1 3 1.41e-7
R5 3 port2 75.0
L6 port1 4 7.79e-8
R6 4 port2 6.52
L7 port1 5 5.77e-10
C7 5 6 1.28e-13
R7 6 port2 1.03
L8 port1 7 2.60e-9
C8 7 8 5.37e-14
R8 8 port2 5.44
L9 port1 9 1.88e-8
C9 9 10 6.21e-15
R9 10 port2 297
.ENDS LQG15HN15NH02
*----------------------------------------------------------------------
*----------------------------------------------------------------------
* SPICE Model generated by Murata Manufacturing Co., Ltd.
* Copyright(C) Murata Manufacturing Co., Ltd.
* MURATA P/N : LQG15HN15NJ02
* Property : L = 15[nH]
*----------------------------------------------------------------------
* Applicable Conditions:
*   Frequency Range = 1MHz - 20GHz
*   Temperature = 25 degC
*   DC Bias Current = 0 A
*   Small Signal Operation
*----------------------------------------------------------------------
.SUBCKT LQG15HN15NJ02 port1 port2
C1 port1 port2 6.17e-15
L2 port1 1 1.95e-8
R2 1 port2 2.05e-1
R3 port1 port2 1.28e+4
L4 port1 2 3.16e-7
R4 2 port2 1.12e+3
L5 port1 3 1.41e-7
R5 3 port2 75.0
L6 port1 4 7.79e-8
R6 4 port2 6.52
L7 port1 5 5.77e-10
C7 5 6 1.28e-13
R7 6 port2 1.03
L8 port1 7 2.60e-9
C8 7 8 5.37e-14
R8 8 port2 5.44
L9 port1 9 1.88e-8
C9 9 10 6.21e-15
R9 10 port2 297
.ENDS LQG15HN15NJ02
*----------------------------------------------------------------------
*----------------------------------------------------------------------
* SPICE Model generated by Murata Manufacturing Co., Ltd.
* Copyright(C) Murata Manufacturing Co., Ltd.
* MURATA P/N : LQG15HN18NG02
* Property : L = 18[nH]
*----------------------------------------------------------------------
* Applicable Conditions:
*   Frequency Range = 1MHz - 20GHz
*   Temperature = 25 degC
*   DC Bias Current = 0 A
*   Small Signal Operation
*----------------------------------------------------------------------
.SUBCKT LQG15HN18NG02 port1 port2
C1 port1 port2 2.40e-14
L2 port1 1 2.19e-8
R2 1 port2 2.76e-1
R3 port1 port2 1.72e+4
L4 port1 2 3.62e-7
R4 2 port2 1.35e+3
L5 port1 3 1.69e-7
R5 3 port2 88.2
L6 port1 4 1.29e-7
R6 4 port2 13.3
L7 port1 5 5.90e-10
C7 5 6 1.25e-13
R7 6 port2 1.33
L8 port1 7 4.83e-9
C8 7 8 3.98e-14
R8 8 port2 11.9
L9 port1 9 1.97e-8
C9 9 10 5.93e-15
R9 10 port2 311
.ENDS LQG15HN18NG02
*----------------------------------------------------------------------
*----------------------------------------------------------------------
* SPICE Model generated by Murata Manufacturing Co., Ltd.
* Copyright(C) Murata Manufacturing Co., Ltd.
* MURATA P/N : LQG15HN18NH02
* Property : L = 18[nH]
*----------------------------------------------------------------------
* Applicable Conditions:
*   Frequency Range = 1MHz - 20GHz
*   Temperature = 25 degC
*   DC Bias Current = 0 A
*   Small Signal Operation
*----------------------------------------------------------------------
.SUBCKT LQG15HN18NH02 port1 port2
C1 port1 port2 2.40e-14
L2 port1 1 2.19e-8
R2 1 port2 2.76e-1
R3 port1 port2 1.72e+4
L4 port1 2 3.62e-7
R4 2 port2 1.35e+3
L5 port1 3 1.69e-7
R5 3 port2 88.2
L6 port1 4 1.29e-7
R6 4 port2 13.3
L7 port1 5 5.90e-10
C7 5 6 1.25e-13
R7 6 port2 1.33
L8 port1 7 4.83e-9
C8 7 8 3.98e-14
R8 8 port2 11.9
L9 port1 9 1.97e-8
C9 9 10 5.93e-15
R9 10 port2 311
.ENDS LQG15HN18NH02
*----------------------------------------------------------------------
*----------------------------------------------------------------------
* SPICE Model generated by Murata Manufacturing Co., Ltd.
* Copyright(C) Murata Manufacturing Co., Ltd.
* MURATA P/N : LQG15HN18NJ02
* Property : L = 18[nH]
*----------------------------------------------------------------------
* Applicable Conditions:
*   Frequency Range = 1MHz - 20GHz
*   Temperature = 25 degC
*   DC Bias Current = 0 A
*   Small Signal Operation
*----------------------------------------------------------------------
.SUBCKT LQG15HN18NJ02 port1 port2
C1 port1 port2 2.40e-14
L2 port1 1 2.19e-8
R2 1 port2 2.76e-1
R3 port1 port2 1.72e+4
L4 port1 2 3.62e-7
R4 2 port2 1.35e+3
L5 port1 3 1.69e-7
R5 3 port2 88.2
L6 port1 4 1.29e-7
R6 4 port2 13.3
L7 port1 5 5.90e-10
C7 5 6 1.25e-13
R7 6 port2 1.33
L8 port1 7 4.83e-9
C8 7 8 3.98e-14
R8 8 port2 11.9
L9 port1 9 1.97e-8
C9 9 10 5.93e-15
R9 10 port2 311
.ENDS LQG15HN18NJ02
*----------------------------------------------------------------------
*----------------------------------------------------------------------
* SPICE Model generated by Murata Manufacturing Co., Ltd.
* Copyright(C) Murata Manufacturing Co., Ltd.
* MURATA P/N : LQG15HN1N0B02
* Property : L = 1[nH]
*----------------------------------------------------------------------
* Applicable Conditions:
*   Frequency Range = 1MHz - 20GHz
*   Temperature = 25 degC
*   DC Bias Current = 0 A
*   Small Signal Operation
*----------------------------------------------------------------------
.SUBCKT LQG15HN1N0B02 port1 port2
C1 port1 port2 5.14e-16
L2 port1 1 7.61e-10
R2 1 port2 3.34e-2
R3 port1 port2 2.73e+3
L4 port1 2 2.30e-8
R4 2 port2 104
L5 port1 3 1.08e-8
R5 3 port2 5.92
L6 port1 4 3.89e-7
R6 4 port2 71.4
L7 port1 5 8.20e-8
C7 5 6 1.52e-15
R7 6 port2 130
.ENDS LQG15HN1N0B02
*----------------------------------------------------------------------
*----------------------------------------------------------------------
* SPICE Model generated by Murata Manufacturing Co., Ltd.
* Copyright(C) Murata Manufacturing Co., Ltd.
* MURATA P/N : LQG15HN1N0C02
* Property : L = 1[nH]
*----------------------------------------------------------------------
* Applicable Conditions:
*   Frequency Range = 1MHz - 20GHz
*   Temperature = 25 degC
*   DC Bias Current = 0 A
*   Small Signal Operation
*----------------------------------------------------------------------
.SUBCKT LQG15HN1N0C02 port1 port2
C1 port1 port2 5.14e-16
L2 port1 1 7.61e-10
R2 1 port2 3.34e-2
R3 port1 port2 2.73e+3
L4 port1 2 2.30e-8
R4 2 port2 104
L5 port1 3 1.08e-8
R5 3 port2 5.92
L6 port1 4 3.89e-7
R6 4 port2 71.4
L7 port1 5 8.20e-8
C7 5 6 1.52e-15
R7 6 port2 130
.ENDS LQG15HN1N0C02
*----------------------------------------------------------------------
*----------------------------------------------------------------------
* SPICE Model generated by Murata Manufacturing Co., Ltd.
* Copyright(C) Murata Manufacturing Co., Ltd.
* MURATA P/N : LQG15HN1N0S02
* Property : L = 1[nH]
*----------------------------------------------------------------------
* Applicable Conditions:
*   Frequency Range = 1MHz - 20GHz
*   Temperature = 25 degC
*   DC Bias Current = 0 A
*   Small Signal Operation
*----------------------------------------------------------------------
.SUBCKT LQG15HN1N0S02 port1 port2
C1 port1 port2 5.14e-16
L2 port1 1 7.61e-10
R2 1 port2 3.34e-2
R3 port1 port2 2.73e+3
L4 port1 2 2.30e-8
R4 2 port2 104
L5 port1 3 1.08e-8
R5 3 port2 5.92
L6 port1 4 3.89e-7
R6 4 port2 71.4
L7 port1 5 8.20e-8
C7 5 6 1.52e-15
R7 6 port2 130
.ENDS LQG15HN1N0S02
*----------------------------------------------------------------------
*----------------------------------------------------------------------
* SPICE Model generated by Murata Manufacturing Co., Ltd.
* Copyright(C) Murata Manufacturing Co., Ltd.
* MURATA P/N : LQG15HN1N1B02
* Property : L = 1.1[nH]
*----------------------------------------------------------------------
* Applicable Conditions:
*   Frequency Range = 1MHz - 20GHz
*   Temperature = 25 degC
*   DC Bias Current = 0 A
*   Small Signal Operation
*----------------------------------------------------------------------
.SUBCKT LQG15HN1N1B02 port1 port2
C1 port1 port2 4.08e-19
L2 port1 1 8.94e-10
R2 1 port2 3.34e-2
R3 port1 port2 2.73e+3
L4 port1 2 3.56e-8
R4 2 port2 161
L5 port1 3 1.08e-8
R5 3 port2 5.92
L6 port1 4 3.89e-7
R6 4 port2 71.4
L7 port1 5 3.50e-8
C7 5 6 8.16e-17
R7 6 port2 46.1
.ENDS LQG15HN1N1B02
*----------------------------------------------------------------------
*----------------------------------------------------------------------
* SPICE Model generated by Murata Manufacturing Co., Ltd.
* Copyright(C) Murata Manufacturing Co., Ltd.
* MURATA P/N : LQG15HN1N1C02
* Property : L = 1.1[nH]
*----------------------------------------------------------------------
* Applicable Conditions:
*   Frequency Range = 1MHz - 20GHz
*   Temperature = 25 degC
*   DC Bias Current = 0 A
*   Small Signal Operation
*----------------------------------------------------------------------
.SUBCKT LQG15HN1N1C02 port1 port2
C1 port1 port2 4.08e-19
L2 port1 1 8.94e-10
R2 1 port2 3.34e-2
R3 port1 port2 2.73e+3
L4 port1 2 3.56e-8
R4 2 port2 161
L5 port1 3 1.08e-8
R5 3 port2 5.92
L6 port1 4 3.89e-7
R6 4 port2 71.4
L7 port1 5 3.50e-8
C7 5 6 8.16e-17
R7 6 port2 46.1
.ENDS LQG15HN1N1C02
*----------------------------------------------------------------------
*----------------------------------------------------------------------
* SPICE Model generated by Murata Manufacturing Co., Ltd.
* Copyright(C) Murata Manufacturing Co., Ltd.
* MURATA P/N : LQG15HN1N1S02
* Property : L = 1.1[nH]
*----------------------------------------------------------------------
* Applicable Conditions:
*   Frequency Range = 1MHz - 20GHz
*   Temperature = 25 degC
*   DC Bias Current = 0 A
*   Small Signal Operation
*----------------------------------------------------------------------
.SUBCKT LQG15HN1N1S02 port1 port2
C1 port1 port2 4.08e-19
L2 port1 1 8.94e-10
R2 1 port2 3.34e-2
R3 port1 port2 2.73e+3
L4 port1 2 3.56e-8
R4 2 port2 161
L5 port1 3 1.08e-8
R5 3 port2 5.92
L6 port1 4 3.89e-7
R6 4 port2 71.4
L7 port1 5 3.50e-8
C7 5 6 8.16e-17
R7 6 port2 46.1
.ENDS LQG15HN1N1S02
*----------------------------------------------------------------------
*----------------------------------------------------------------------
* SPICE Model generated by Murata Manufacturing Co., Ltd.
* Copyright(C) Murata Manufacturing Co., Ltd.
* MURATA P/N : LQG15HN1N2B02
* Property : L = 1.2[nH]
*----------------------------------------------------------------------
* Applicable Conditions:
*   Frequency Range = 1MHz - 20GHz
*   Temperature = 25 degC
*   DC Bias Current = 0 A
*   Small Signal Operation
*----------------------------------------------------------------------
.SUBCKT LQG15HN1N2B02 port1 port2
C1 port1 port2 4.08e-19
L2 port1 1 9.80e-10
R2 1 port2 1.60e-2
R3 port1 port2 2.73e+3
L4 port1 2 3.56e-8
R4 2 port2 165
L5 port1 3 1.16e-8
R5 3 port2 6.34
L6 port1 4 3.89e-7
R6 4 port2 71.4
L7 port1 5 8.80e-10
C7 5 6 5.15e-14
R7 6 port2 2.91e-1
.ENDS LQG15HN1N2B02
*----------------------------------------------------------------------
*----------------------------------------------------------------------
* SPICE Model generated by Murata Manufacturing Co., Ltd.
* Copyright(C) Murata Manufacturing Co., Ltd.
* MURATA P/N : LQG15HN1N2C02
* Property : L = 1.2[nH]
*----------------------------------------------------------------------
* Applicable Conditions:
*   Frequency Range = 1MHz - 20GHz
*   Temperature = 25 degC
*   DC Bias Current = 0 A
*   Small Signal Operation
*----------------------------------------------------------------------
.SUBCKT LQG15HN1N2C02 port1 port2
C1 port1 port2 4.08e-19
L2 port1 1 9.80e-10
R2 1 port2 1.60e-2
R3 port1 port2 2.73e+3
L4 port1 2 3.56e-8
R4 2 port2 165
L5 port1 3 1.16e-8
R5 3 port2 6.34
L6 port1 4 3.89e-7
R6 4 port2 71.4
L7 port1 5 8.80e-10
C7 5 6 5.15e-14
R7 6 port2 2.91e-1
.ENDS LQG15HN1N2C02
*----------------------------------------------------------------------
*----------------------------------------------------------------------
* SPICE Model generated by Murata Manufacturing Co., Ltd.
* Copyright(C) Murata Manufacturing Co., Ltd.
* MURATA P/N : LQG15HN1N2S02
* Property : L = 1.2[nH]
*----------------------------------------------------------------------
* Applicable Conditions:
*   Frequency Range = 1MHz - 20GHz
*   Temperature = 25 degC
*   DC Bias Current = 0 A
*   Small Signal Operation
*----------------------------------------------------------------------
.SUBCKT LQG15HN1N2S02 port1 port2
C1 port1 port2 4.08e-19
L2 port1 1 9.80e-10
R2 1 port2 1.60e-2
R3 port1 port2 2.73e+3
L4 port1 2 3.56e-8
R4 2 port2 165
L5 port1 3 1.16e-8
R5 3 port2 6.34
L6 port1 4 3.89e-7
R6 4 port2 71.4
L7 port1 5 8.80e-10
C7 5 6 5.15e-14
R7 6 port2 2.91e-1
.ENDS LQG15HN1N2S02
*----------------------------------------------------------------------
*----------------------------------------------------------------------
* SPICE Model generated by Murata Manufacturing Co., Ltd.
* Copyright(C) Murata Manufacturing Co., Ltd.
* MURATA P/N : LQG15HN1N3B02
* Property : L = 1.3[nH]
*----------------------------------------------------------------------
* Applicable Conditions:
*   Frequency Range = 1MHz - 20GHz
*   Temperature = 25 degC
*   DC Bias Current = 0 A
*   Small Signal Operation
*----------------------------------------------------------------------
.SUBCKT LQG15HN1N3B02 port1 port2
C1 port1 port2 5.26e-15
L2 port1 1 1.05e-9
R2 1 port2 2.91e-2
R3 port1 port2 3.28e+3
L4 port1 2 6.16e-8
R4 2 port2 338
L5 port1 3 1.99e-8
R5 3 port2 18.9
L6 port1 4 1.35e-7
R6 4 port2 48.3
L7 port1 5 8.98e-10
C7 5 6 5.18e-14
R7 6 port2 7.18e-1
.ENDS LQG15HN1N3B02
*----------------------------------------------------------------------
*----------------------------------------------------------------------
* SPICE Model generated by Murata Manufacturing Co., Ltd.
* Copyright(C) Murata Manufacturing Co., Ltd.
* MURATA P/N : LQG15HN1N3C02
* Property : L = 1.3[nH]
*----------------------------------------------------------------------
* Applicable Conditions:
*   Frequency Range = 1MHz - 20GHz
*   Temperature = 25 degC
*   DC Bias Current = 0 A
*   Small Signal Operation
*----------------------------------------------------------------------
.SUBCKT LQG15HN1N3C02 port1 port2
C1 port1 port2 5.26e-15
L2 port1 1 1.05e-9
R2 1 port2 2.91e-2
R3 port1 port2 3.28e+3
L4 port1 2 6.16e-8
R4 2 port2 338
L5 port1 3 1.99e-8
R5 3 port2 18.9
L6 port1 4 1.35e-7
R6 4 port2 48.3
L7 port1 5 8.98e-10
C7 5 6 5.18e-14
R7 6 port2 7.18e-1
.ENDS LQG15HN1N3C02
*----------------------------------------------------------------------
*----------------------------------------------------------------------
* SPICE Model generated by Murata Manufacturing Co., Ltd.
* Copyright(C) Murata Manufacturing Co., Ltd.
* MURATA P/N : LQG15HN1N3S02
* Property : L = 1.3[nH]
*----------------------------------------------------------------------
* Applicable Conditions:
*   Frequency Range = 1MHz - 20GHz
*   Temperature = 25 degC
*   DC Bias Current = 0 A
*   Small Signal Operation
*----------------------------------------------------------------------
.SUBCKT LQG15HN1N3S02 port1 port2
C1 port1 port2 5.26e-15
L2 port1 1 1.05e-9
R2 1 port2 2.91e-2
R3 port1 port2 3.28e+3
L4 port1 2 6.16e-8
R4 2 port2 338
L5 port1 3 1.99e-8
R5 3 port2 18.9
L6 port1 4 1.35e-7
R6 4 port2 48.3
L7 port1 5 8.98e-10
C7 5 6 5.18e-14
R7 6 port2 7.18e-1
.ENDS LQG15HN1N3S02
*----------------------------------------------------------------------
*----------------------------------------------------------------------
* SPICE Model generated by Murata Manufacturing Co., Ltd.
* Copyright(C) Murata Manufacturing Co., Ltd.
* MURATA P/N : LQG15HN1N5B02
* Property : L = 1.5[nH]
*----------------------------------------------------------------------
* Applicable Conditions:
*   Frequency Range = 1MHz - 20GHz
*   Temperature = 25 degC
*   DC Bias Current = 0 A
*   Small Signal Operation
*----------------------------------------------------------------------
.SUBCKT LQG15HN1N5B02 port1 port2
C1 port1 port2 1.38e-14
L2 port1 1 1.26e-9
R2 1 port2 2.06e-2
R3 port1 port2 3.44e+3
L4 port1 2 3.89e-8
R4 2 port2 126
L5 port1 3 1.77e-8
R5 3 port2 8.06
L6 port1 4 4.38e-7
R6 4 port2 29.8
L7 port1 5 7.64e-10
C7 5 6 9.65e-14
R7 6 port2 6.25e-1
.ENDS LQG15HN1N5B02
*----------------------------------------------------------------------
*----------------------------------------------------------------------
* SPICE Model generated by Murata Manufacturing Co., Ltd.
* Copyright(C) Murata Manufacturing Co., Ltd.
* MURATA P/N : LQG15HN1N5C02
* Property : L = 1.5[nH]
*----------------------------------------------------------------------
* Applicable Conditions:
*   Frequency Range = 1MHz - 20GHz
*   Temperature = 25 degC
*   DC Bias Current = 0 A
*   Small Signal Operation
*----------------------------------------------------------------------
.SUBCKT LQG15HN1N5C02 port1 port2
C1 port1 port2 1.38e-14
L2 port1 1 1.26e-9
R2 1 port2 2.06e-2
R3 port1 port2 3.44e+3
L4 port1 2 3.89e-8
R4 2 port2 126
L5 port1 3 1.77e-8
R5 3 port2 8.06
L6 port1 4 4.38e-7
R6 4 port2 29.8
L7 port1 5 7.64e-10
C7 5 6 9.65e-14
R7 6 port2 6.25e-1
.ENDS LQG15HN1N5C02
*----------------------------------------------------------------------
*----------------------------------------------------------------------
* SPICE Model generated by Murata Manufacturing Co., Ltd.
* Copyright(C) Murata Manufacturing Co., Ltd.
* MURATA P/N : LQG15HN1N5S02
* Property : L = 1.5[nH]
*----------------------------------------------------------------------
* Applicable Conditions:
*   Frequency Range = 1MHz - 20GHz
*   Temperature = 25 degC
*   DC Bias Current = 0 A
*   Small Signal Operation
*----------------------------------------------------------------------
.SUBCKT LQG15HN1N5S02 port1 port2
C1 port1 port2 1.38e-14
L2 port1 1 1.26e-9
R2 1 port2 2.06e-2
R3 port1 port2 3.44e+3
L4 port1 2 3.89e-8
R4 2 port2 126
L5 port1 3 1.77e-8
R5 3 port2 8.06
L6 port1 4 4.38e-7
R6 4 port2 29.8
L7 port1 5 7.64e-10
C7 5 6 9.65e-14
R7 6 port2 6.25e-1
.ENDS LQG15HN1N5S02
*----------------------------------------------------------------------
*----------------------------------------------------------------------
* SPICE Model generated by Murata Manufacturing Co., Ltd.
* Copyright(C) Murata Manufacturing Co., Ltd.
* MURATA P/N : LQG15HN1N6B02
* Property : L = 1.6[nH]
*----------------------------------------------------------------------
* Applicable Conditions:
*   Frequency Range = 1MHz - 20GHz
*   Temperature = 25 degC
*   DC Bias Current = 0 A
*   Small Signal Operation
*----------------------------------------------------------------------
.SUBCKT LQG15HN1N6B02 port1 port2
C1 port1 port2 5.64e-16
L2 port1 1 1.35e-9
R2 1 port2 3.83e-2
R3 port1 port2 3.36e+3
L4 port1 2 3.63e-8
R4 2 port2 112
L5 port1 3 6.58e-8
R5 3 port2 24.9
L6 port1 4 2.35e-8
R6 4 port2 9.21
L7 port1 5 7.13e-10
C7 5 6 9.01e-14
R7 6 port2 6.25e-1
.ENDS LQG15HN1N6B02
*----------------------------------------------------------------------
*----------------------------------------------------------------------
* SPICE Model generated by Murata Manufacturing Co., Ltd.
* Copyright(C) Murata Manufacturing Co., Ltd.
* MURATA P/N : LQG15HN1N6C02
* Property : L = 1.6[nH]
*----------------------------------------------------------------------
* Applicable Conditions:
*   Frequency Range = 1MHz - 20GHz
*   Temperature = 25 degC
*   DC Bias Current = 0 A
*   Small Signal Operation
*----------------------------------------------------------------------
.SUBCKT LQG15HN1N6C02 port1 port2
C1 port1 port2 5.64e-16
L2 port1 1 1.35e-9
R2 1 port2 3.83e-2
R3 port1 port2 3.36e+3
L4 port1 2 3.63e-8
R4 2 port2 112
L5 port1 3 6.58e-8
R5 3 port2 24.9
L6 port1 4 2.35e-8
R6 4 port2 9.21
L7 port1 5 7.13e-10
C7 5 6 9.01e-14
R7 6 port2 6.25e-1
.ENDS LQG15HN1N6C02
*----------------------------------------------------------------------
*----------------------------------------------------------------------
* SPICE Model generated by Murata Manufacturing Co., Ltd.
* Copyright(C) Murata Manufacturing Co., Ltd.
* MURATA P/N : LQG15HN1N6S02
* Property : L = 1.6[nH]
*----------------------------------------------------------------------
* Applicable Conditions:
*   Frequency Range = 1MHz - 20GHz
*   Temperature = 25 degC
*   DC Bias Current = 0 A
*   Small Signal Operation
*----------------------------------------------------------------------
.SUBCKT LQG15HN1N6S02 port1 port2
C1 port1 port2 5.64e-16
L2 port1 1 1.35e-9
R2 1 port2 3.83e-2
R3 port1 port2 3.36e+3
L4 port1 2 3.63e-8
R4 2 port2 112
L5 port1 3 6.58e-8
R5 3 port2 24.9
L6 port1 4 2.35e-8
R6 4 port2 9.21
L7 port1 5 7.13e-10
C7 5 6 9.01e-14
R7 6 port2 6.25e-1
.ENDS LQG15HN1N6S02
*----------------------------------------------------------------------
*----------------------------------------------------------------------
* SPICE Model generated by Murata Manufacturing Co., Ltd.
* Copyright(C) Murata Manufacturing Co., Ltd.
* MURATA P/N : LQG15HN1N8B02
* Property : L = 1.8[nH]
*----------------------------------------------------------------------
* Applicable Conditions:
*   Frequency Range = 1MHz - 20GHz
*   Temperature = 25 degC
*   DC Bias Current = 0 A
*   Small Signal Operation
*----------------------------------------------------------------------
.SUBCKT LQG15HN1N8B02 port1 port2
C1 port1 port2 2.19e-14
L2 port1 1 1.60e-9
R2 1 port2 3.19e-2
R3 port1 port2 3.95e+3
L4 port1 2 5.12e-8
R4 2 port2 209
L5 port1 3 2.33e-8
R5 3 port2 15.0
L6 port1 4 7.27e-8
R6 4 port2 16.4
L7 port1 5 8.19e-10
C7 5 6 1.80e-13
R7 6 port2 9.90e-1
.ENDS LQG15HN1N8B02
*----------------------------------------------------------------------
*----------------------------------------------------------------------
* SPICE Model generated by Murata Manufacturing Co., Ltd.
* Copyright(C) Murata Manufacturing Co., Ltd.
* MURATA P/N : LQG15HN1N8C02
* Property : L = 1.8[nH]
*----------------------------------------------------------------------
* Applicable Conditions:
*   Frequency Range = 1MHz - 20GHz
*   Temperature = 25 degC
*   DC Bias Current = 0 A
*   Small Signal Operation
*----------------------------------------------------------------------
.SUBCKT LQG15HN1N8C02 port1 port2
C1 port1 port2 2.19e-14
L2 port1 1 1.60e-9
R2 1 port2 3.19e-2
R3 port1 port2 3.95e+3
L4 port1 2 5.12e-8
R4 2 port2 209
L5 port1 3 2.33e-8
R5 3 port2 15.0
L6 port1 4 7.27e-8
R6 4 port2 16.4
L7 port1 5 8.19e-10
C7 5 6 1.80e-13
R7 6 port2 9.90e-1
.ENDS LQG15HN1N8C02
*----------------------------------------------------------------------
*----------------------------------------------------------------------
* SPICE Model generated by Murata Manufacturing Co., Ltd.
* Copyright(C) Murata Manufacturing Co., Ltd.
* MURATA P/N : LQG15HN1N8S02
* Property : L = 1.8[nH]
*----------------------------------------------------------------------
* Applicable Conditions:
*   Frequency Range = 1MHz - 20GHz
*   Temperature = 25 degC
*   DC Bias Current = 0 A
*   Small Signal Operation
*----------------------------------------------------------------------
.SUBCKT LQG15HN1N8S02 port1 port2
C1 port1 port2 2.19e-14
L2 port1 1 1.60e-9
R2 1 port2 3.19e-2
R3 port1 port2 3.95e+3
L4 port1 2 5.12e-8
R4 2 port2 209
L5 port1 3 2.33e-8
R5 3 port2 15.0