*----------------------------------------------------------------------
* SPICE Model generated by Murata Manufacturing Co., Ltd.
* Copyright(C) Murata Manufacturing Co., Ltd.
* MURATA P/N : LQG15WZ10NG02
* Property : L = 10[nH]
*----------------------------------------------------------------------
* Applicable Conditions:
*   Frequency Range = 1MHz - 20GHz
*   Temperature = 25 degC
*   DC Bias Current = 0 A
*   Small Signal Operation
*----------------------------------------------------------------------
.SUBCKT LQG15WZ10NG02 port1 port2
C1 port1 port2 2.57e-14
L2 port1 1 4.20e-8
R2 1 port2 1.38e-1
R3 port1 port2 1.03e+4
L4 port1 2 3.37e-7
R4 2 port2 1.06e+3
L5 port1 3 1.69e-7
R5 3 port2 73.4
L6 port1 4 1.35e-8
R6 4 port2 2.35e-1
L7 port1 5 1.80e-8
C7 5 6 9.94e-15
R7 6 port2 89.5
L8 port1 7 1.38e-9
C8 7 8 6.10e-14
R8 8 port2 5.37e-1
L9 port1 9 2.92e-9
C9 9 10 2.01e-14
R9 10 port2 19.2
.ENDS LQG15WZ10NG02
*----------------------------------------------------------------------
*----------------------------------------------------------------------
* SPICE Model generated by Murata Manufacturing Co., Ltd.
* Copyright(C) Murata Manufacturing Co., Ltd.
* MURATA P/N : LQG15WZ10NH02
* Property : L = 10[nH]
*----------------------------------------------------------------------
* Applicable Conditions:
*   Frequency Range = 1MHz - 20GHz
*   Temperature = 25 degC
*   DC Bias Current = 0 A
*   Small Signal Operation
*----------------------------------------------------------------------
.SUBCKT LQG15WZ10NH02 port1 port2
C1 port1 port2 2.57e-14
L2 port1 1 4.20e-8
R2 1 port2 1.38e-1
R3 port1 port2 1.03e+4
L4 port1 2 3.37e-7
R4 2 port2 1.06e+3
L5 port1 3 1.69e-7
R5 3 port2 73.4
L6 port1 4 1.35e-8
R6 4 port2 2.35e-1
L7 port1 5 1.80e-8
C7 5 6 9.94e-15
R7 6 port2 89.5
L8 port1 7 1.38e-9
C8 7 8 6.10e-14
R8 8 port2 5.37e-1
L9 port1 9 2.92e-9
C9 9 10 2.01e-14
R9 10 port2 19.2
.ENDS LQG15WZ10NH02
*----------------------------------------------------------------------
*----------------------------------------------------------------------
* SPICE Model generated by Murata Manufacturing Co., Ltd.
* Copyright(C) Murata Manufacturing Co., Ltd.
* MURATA P/N : LQG15WZ10NJ02
* Property : L = 10[nH]
*----------------------------------------------------------------------
* Applicable Conditions:
*   Frequency Range = 1MHz - 20GHz
*   Temperature = 25 degC
*   DC Bias Current = 0 A
*   Small Signal Operation
*----------------------------------------------------------------------
.SUBCKT LQG15WZ10NJ02 port1 port2
C1 port1 port2 2.57e-14
L2 port1 1 4.20e-8
R2 1 port2 1.38e-1
R3 port1 port2 1.03e+4
L4 port1 2 3.37e-7
R4 2 port2 1.06e+3
L5 port1 3 1.69e-7
R5 3 port2 73.4
L6 port1 4 1.35e-8
R6 4 port2 2.35e-1
L7 port1 5 1.80e-8
C7 5 6 9.94e-15
R7 6 port2 89.5
L8 port1 7 1.38e-9
C8 7 8 6.10e-14
R8 8 port2 5.37e-1
L9 port1 9 2.92e-9
C9 9 10 2.01e-14
R9 10 port2 19.2
.ENDS LQG15WZ10NJ02
*----------------------------------------------------------------------
*----------------------------------------------------------------------
* SPICE Model generated by Murata Manufacturing Co., Ltd.
* Copyright(C) Murata Manufacturing Co., Ltd.
* MURATA P/N : LQG15WZ11NG02
* Property : L = 11[nH]
*----------------------------------------------------------------------
* Applicable Conditions:
*   Frequency Range = 1MHz - 20GHz
*   Temperature = 25 degC
*   DC Bias Current = 0 A
*   Small Signal Operation
*----------------------------------------------------------------------
.SUBCKT LQG15WZ11NG02 port1 port2
C1 port1 port2 1.32e-14
L2 port1 1 5.76e-8
R2 1 port2 1.04e-1
R3 port1 port2 1.11e+4
L4 port1 2 3.45e-7
R4 2 port2 1.17e+3
L5 port1 3 1.28e-7
R5 3 port2 45.3
L6 port1 4 1.41e-8
R6 4 port2 2.10e-1
L7 port1 5 1.37e-7
C7 5 6 1.65e-15
R7 6 port2 152
L8 port1 7 1.17e-9
C8 7 8 7.86e-14
R8 8 port2 2.57
L9 port1 9 2.88e-8
C9 9 10 1.96e-15
R9 10 port2 104
L10 port1 11 3.06e-9
C10 11 12 2.10e-14
R10 12 port2 19.2
.ENDS LQG15WZ11NG02
*----------------------------------------------------------------------
*----------------------------------------------------------------------
* SPICE Model generated by Murata Manufacturing Co., Ltd.
* Copyright(C) Murata Manufacturing Co., Ltd.
* MURATA P/N : LQG15WZ11NH02
* Property : L = 11[nH]
*----------------------------------------------------------------------
* Applicable Conditions:
*   Frequency Range = 1MHz - 20GHz
*   Temperature = 25 degC
*   DC Bias Current = 0 A
*   Small Signal Operation
*----------------------------------------------------------------------
.SUBCKT LQG15WZ11NH02 port1 port2
C1 port1 port2 1.32e-14
L2 port1 1 5.76e-8
R2 1 port2 1.04e-1
R3 port1 port2 1.11e+4
L4 port1 2 3.45e-7
R4 2 port2 1.17e+3
L5 port1 3 1.28e-7
R5 3 port2 45.3
L6 port1 4 1.41e-8
R6 4 port2 2.10e-1
L7 port1 5 1.37e-7
C7 5 6 1.65e-15
R7 6 port2 152
L8 port1 7 1.17e-9
C8 7 8 7.86e-14
R8 8 port2 2.57
L9 port1 9 2.88e-8
C9 9 10 1.96e-15
R9 10 port2 104
L10 port1 11 3.06e-9
C10 11 12 2.10e-14
R10 12 port2 19.2
.ENDS LQG15WZ11NH02
*----------------------------------------------------------------------
*----------------------------------------------------------------------
* SPICE Model generated by Murata Manufacturing Co., Ltd.
* Copyright(C) Murata Manufacturing Co., Ltd.
* MURATA P/N : LQG15WZ11NJ02
* Property : L = 10[nH]
*----------------------------------------------------------------------
* Applicable Conditions:
*   Frequency Range = 1MHz - 20GHz
*   Temperature = 25 degC
*   DC Bias Current = 0 A
*   Small Signal Operation
*----------------------------------------------------------------------
.SUBCKT LQG15WZ11NJ02 port1 port2
C1 port1 port2 1.32e-14
L2 port1 1 5.76e-8
R2 1 port2 1.04e-1
R3 port1 port2 1.11e+4
L4 port1 2 3.45e-7
R4 2 port2 1.17e+3
L5 port1 3 1.28e-7
R5 3 port2 45.3
L6 port1 4 1.41e-8
R6 4 port2 2.10e-1
L7 port1 5 1.37e-7
C7 5 6 1.65e-15
R7 6 port2 152
L8 port1 7 1.17e-9
C8 7 8 7.86e-14
R8 8 port2 2.57
L9 port1 9 2.88e-8
C9 9 10 1.96e-15
R9 10 port2 104
L10 port1 11 3.06e-9
C10 11 12 2.10e-14
R10 12 port2 19.2
.ENDS LQG15WZ11NJ02
*----------------------------------------------------------------------
*----------------------------------------------------------------------
* SPICE Model generated by Murata Manufacturing Co., Ltd.
* Copyright(C) Murata Manufacturing Co., Ltd.
* MURATA P/N : LQG15WZ12NG02
* Property : L = 12[nH]
*----------------------------------------------------------------------
* Applicable Conditions:
*   Frequency Range = 1MHz - 20GHz
*   Temperature = 25 degC
*   DC Bias Current = 0 A
*   Small Signal Operation
*----------------------------------------------------------------------
.SUBCKT LQG15WZ12NG02 port1 port2
C1 port1 port2 1.55e-14
L2 port1 1 2.82e-8
R2 1 port2 5.92e-3
R3 port1 port2 1.16e+4
L4 port1 2 4.05e-7
R4 2 port2 1.37e+3
L5 port1 3 1.44e-7
R5 3 port2 53.2
L6 port1 4 2.19e-8
R6 4 port2 3.25e-1
L7 port1 5 3.78e-15
C7 5 6 6.24e-8
R7 6 port2 67.9
L8 port1 7 8.23e-14
C8 7 8 1.23e-9
R8 8 port2 2.57
L9 port1 9 2.15e-15
C9 9 10 3.16e-8
R9 10 port2 104
L10 port1 11 2.10e-14
C10 11 12 3.06e-9
R10 12 port2 19.2
.ENDS LQG15WZ12NG02
*----------------------------------------------------------------------
*----------------------------------------------------------------------
* SPICE Model generated by Murata Manufacturing Co., Ltd.
* Copyright(C) Murata Manufacturing Co., Ltd.
* MURATA P/N : LQG15WZ12NH02
* Property : L = 12[nH]
*----------------------------------------------------------------------
* Applicable Conditions:
*   Frequency Range = 1MHz - 20GHz
*   Temperature = 25 degC
*   DC Bias Current = 0 A
*   Small Signal Operation
*----------------------------------------------------------------------
.SUBCKT LQG15WZ12NH02 port1 port2
C1 port1 port2 1.55e-14
L2 port1 1 2.82e-8
R2 1 port2 5.92e-3
R3 port1 port2 1.16e+4
L4 port1 2 4.05e-7
R4 2 port2 1.37e+3
L5 port1 3 1.44e-7
R5 3 port2 53.2
L6 port1 4 2.19e-8
R6 4 port2 3.25e-1
L7 port1 5 3.78e-15
C7 5 6 6.24e-8
R7 6 port2 67.9
L8 port1 7 8.23e-14
C8 7 8 1.23e-9
R8 8 port2 2.57
L9 port1 9 2.15e-15
C9 9 10 3.16e-8
R9 10 port2 104
L10 port1 11 2.10e-14
C10 11 12 3.06e-9
R10 12 port2 19.2
.ENDS LQG15WZ12NH02
*----------------------------------------------------------------------
*----------------------------------------------------------------------
* SPICE Model generated by Murata Manufacturing Co., Ltd.
* Copyright(C) Murata Manufacturing Co., Ltd.
* MURATA P/N : LQG15WZ12NJ02
* Property : L = 12[nH]
*----------------------------------------------------------------------
* Applicable Conditions:
*   Frequency Range = 1MHz - 20GHz
*   Temperature = 25 degC
*   DC Bias Current = 0 A
*   Small Signal Operation
*----------------------------------------------------------------------
.SUBCKT LQG15WZ12NJ02 port1 port2
C1 port1 port2 1.55e-14
L2 port1 1 2.82e-8
R2 1 port2 5.92e-3
R3 port1 port2 1.16e+4
L4 port1 2 4.05e-7
R4 2 port2 1.37e+3
L5 port1 3 1.44e-7
R5 3 port2 53.2
L6 port1 4 2.19e-8
R6 4 port2 3.25e-1
L7 port1 5 3.78e-15
C7 5 6 6.24e-8
R7 6 port2 67.9
L8 port1 7 8.23e-14
C8 7 8 1.23e-9
R8 8 port2 2.57
L9 port1 9 2.15e-15
C9 9 10 3.16e-8
R9 10 port2 104
L10 port1 11 2.10e-14
C10 11 12 3.06e-9
R10 12 port2 19.2
.ENDS LQG15WZ12NJ02
*----------------------------------------------------------------------
*----------------------------------------------------------------------
* SPICE Model generated by Murata Manufacturing Co., Ltd.
* Copyright(C) Murata Manufacturing Co., Ltd.
* MURATA P/N : LQG15WZ13NG02
* Property : L = 13[nH]
*----------------------------------------------------------------------
* Applicable Conditions:
*   Frequency Range = 1MHz - 20GHz
*   Temperature = 25 degC
*   DC Bias Current = 0 A
*   Small Signal Operation
*----------------------------------------------------------------------
.SUBCKT LQG15WZ13NG02 port1 port2
C1 port1 port2 6.03e-14
L2 port1 1 1.70e-7
R2 1 port2 1.68e-1
R3 port1 port2 1.36e+4
L4 port1 2 4.54e-7
R4 2 port2 1.69e+3
L5 port1 3 1.86e-7
R5 3 port2 82.1
L6 port1 4 1.45e-8
R6 4 port2 2.41e-1
L7 port1 5 9.89e-8
C7 5 6 2.74e-15
R7 6 port2 400
L8 port1 7 2.69e-9
C8 7 8 3.93e-14
R8 8 port2 3.47
L9 port1 9 2.92e-9
C9 9 10 2.01e-14
R9 10 port2 19.2
.ENDS LQG15WZ13NG02
*----------------------------------------------------------------------
*----------------------------------------------------------------------
* SPICE Model generated by Murata Manufacturing Co., Ltd.
* Copyright(C) Murata Manufacturing Co., Ltd.
* MURATA P/N : LQG15WZ13NH02
* Property : L = 13[nH]
*----------------------------------------------------------------------
* Applicable Conditions:
*   Frequency Range = 1MHz - 20GHz
*   Temperature = 25 degC
*   DC Bias Current = 0 A
*   Small Signal Operation
*----------------------------------------------------------------------
.SUBCKT LQG15WZ13NH02 port1 port2
C1 port1 port2 6.03e-14
L2 port1 1 1.70e-7
R2 1 port2 1.68e-1
R3 port1 port2 1.36e+4
L4 port1 2 4.54e-7
R4 2 port2 1.69e+3
L5 port1 3 1.86e-7
R5 3 port2 82.1
L6 port1 4 1.45e-8
R6 4 port2 2.41e-1
L7 port1 5 9.89e-8
C7 5 6 2.74e-15
R7 6 port2 400
L8 port1 7 2.69e-9
C8 7 8 3.93e-14
R8 8 port2 3.47
L9 port1 9 2.92e-9
C9 9 10 2.01e-14
R9 10 port2 19.2
.ENDS LQG15WZ13NH02
*----------------------------------------------------------------------
*----------------------------------------------------------------------
* SPICE Model generated by Murata Manufacturing Co., Ltd.
* Copyright(C) Murata Manufacturing Co., Ltd.
* MURATA P/N : LQG15WZ13NJ02
* Property : L = 13[nH]
*----------------------------------------------------------------------
* Applicable Conditions:
*   Frequency Range = 1MHz - 20GHz
*   Temperature = 25 degC
*   DC Bias Current = 0 A
*   Small Signal Operation
*----------------------------------------------------------------------
.SUBCKT LQG15WZ13NJ02 port1 port2
C1 port1 port2 6.03e-14
L2 port1 1 1.70e-7
R2 1 port2 1.68e-1
R3 port1 port2 1.36e+4
L4 port1 2 4.54e-7
R4 2 port2 1.69e+3
L5 port1 3 1.86e-7
R5 3 port2 82.1
L6 port1 4 1.45e-8
R6 4 port2 2.41e-1
L7 port1 5 9.89e-8
C7 5 6 2.74e-15
R7 6 port2 400
L8 port1 7 2.69e-9
C8 7 8 3.93e-14
R8 8 port2 3.47
L9 port1 9 2.92e-9
C9 9 10 2.01e-14
R9 10 port2 19.2
.ENDS LQG15WZ13NJ02
*----------------------------------------------------------------------
*----------------------------------------------------------------------
* SPICE Model generated by Murata Manufacturing Co., Ltd.
* Copyright(C) Murata Manufacturing Co., Ltd.
* MURATA P/N : LQG15WZ15NG02
* Property : L = 15[nH]
*----------------------------------------------------------------------
* Applicable Conditions:
*   Frequency Range = 1MHz - 20GHz
*   Temperature = 25 degC
*   DC Bias Current = 0 A
*   Small Signal Operation
*----------------------------------------------------------------------
.SUBCKT LQG15WZ15NG02 port1 port2
C1 port1 port2 6.61e-14
L2 port1 1 3.81e-7
R2 1 port2 1.33e-1
R3 port1 port2 1.36e+4
L4 port1 2 4.65e-7
R4 2 port2 1.58e+3
L5 port1 3 2.40e-7
R5 3 port2 108
L6 port1 4 1.59e-8
R6 4 port2 2.64e-1
L7 port1 5 2.74e-15
C7 5 6 9.89e-8
R7 6 port2 400
L8 port1 7 3.93e-14
C8 7 8 2.69e-9
R8 8 port2 3.47
L9 port1 9 2.01e-14
C9 9 10 2.92e-9
R9 10 port2 19.2
.ENDS LQG15WZ15NG02
*----------------------------------------------------------------------
*----------------------------------------------------------------------
* SPICE Model generated by Murata Manufacturing Co., Ltd.
* Copyright(C) Murata Manufacturing Co., Ltd.
* MURATA P/N : LQG15WZ15NH02
* Property : L = 15[nH]
*----------------------------------------------------------------------
* Applicable Conditions:
*   Frequency Range = 1MHz - 20GHz
*   Temperature = 25 degC
*   DC Bias Current = 0 A
*   Small Signal Operation
*----------------------------------------------------------------------
.SUBCKT LQG15WZ15NH02 port1 port2
C1 port1 port2 6.61e-14
L2 port1 1 3.81e-7
R2 1 port2 1.33e-1
R3 port1 port2 1.36e+4
L4 port1 2 4.65e-7
R4 2 port2 1.58e+3
L5 port1 3 2.40e-7
R5 3 port2 108
L6 port1 4 1.59e-8
R6 4 port2 2.64e-1
L7 port1 5 2.74e-15
C7 5 6 9.89e-8
R7 6 port2 400
L8 port1 7 3.93e-14
C8 7 8 2.69e-9
R8 8 port2 3.47
L9 port1 9 2.01e-14
C9 9 10 2.92e-9
R9 10 port2 19.2
.ENDS LQG15WZ15NH02
*----------------------------------------------------------------------
*----------------------------------------------------------------------
* SPICE Model generated by Murata Manufacturing Co., Ltd.
* Copyright(C) Murata Manufacturing Co., Ltd.
* MURATA P/N : LQG15WZ15NJ02
* Property : L = 15[nH]
*----------------------------------------------------------------------
* Applicable Conditions:
*   Frequency Range = 1MHz - 20GHz
*   Temperature = 25 degC
*   DC Bias Current = 0 A
*   Small Signal Operation
*----------------------------------------------------------------------
.SUBCKT LQG15WZ15NJ02 port1 port2
C1 port1 port2 6.61e-14
L2 port1 1 3.81e-7
R2 1 port2 1.33e-1
R3 port1 port2 1.36e+4
L4 port1 2 4.65e-7
R4 2 port2 1.58e+3
L5 port1 3 2.40e-7
R5 3 port2 108
L6 port1 4 1.59e-8
R6 4 port2 2.64e-1
L7 port1 5 2.74e-15
C7 5 6 9.89e-8
R7 6 port2 400
L8 port1 7 3.93e-14
C8 7 8 2.69e-9
R8 8 port2 3.47
L9 port1 9 2.01e-14
C9 9 10 2.92e-9
R9 10 port2 19.2
.ENDS LQG15WZ15NJ02
*----------------------------------------------------------------------
*----------------------------------------------------------------------
* SPICE Model generated by Murata Manufacturing Co., Ltd.
* Copyright(C) Murata Manufacturing Co., Ltd.
* MURATA P/N : LQG15WZ1N0B02
* Property : L = 1[nH]
*----------------------------------------------------------------------
* Applicable Conditions:
*   Frequency Range = 1MHz - 20GHz
*   Temperature = 25 degC
*   DC Bias Current = 0 A
*   Small Signal Operation
*----------------------------------------------------------------------
.SUBCKT LQG15WZ1N0B02 port1 port2
C1 port1 port2 2.31e-15
L2 port1 1 2.56e-9
R2 1 port2 4.92e-2
R3 port1 port2 1.63e+3
L4 port1 2 8.11e-8
R4 2 port2 344
L5 port1 3 2.44e-8
R5 3 port2 18.0
L6 port1 4 1.00e-9
R6 4 port2 2.51e-2
L7 port1 5 1.85e-15
C7 5 6 6.69e-8
R7 6 port2 252
L8 port1 7 4.71e-15
C8 7 8 6.24e-10
R8 8 port2 58.0
.ENDS LQG15WZ1N0B02
*----------------------------------------------------------------------
*----------------------------------------------------------------------
* SPICE Model generated by Murata Manufacturing Co., Ltd.
* Copyright(C) Murata Manufacturing Co., Ltd.
* MURATA P/N : LQG15WZ1N0C02
* Property : L = 1[nH]
*----------------------------------------------------------------------
* Applicable Conditions:
*   Frequency Range = 1MHz - 20GHz
*   Temperature = 25 degC
*   DC Bias Current = 0 A
*   Small Signal Operation
*----------------------------------------------------------------------
.SUBCKT LQG15WZ1N0C02 port1 port2
C1 port1 port2 2.31e-15
L2 port1 1 2.56e-9
R2 1 port2 4.92e-2
R3 port1 port2 1.63e+3
L4 port1 2 8.11e-8
R4 2 port2 344
L5 port1 3 2.44e-8
R5 3 port2 18.0
L6 port1 4 1.00e-9
R6 4 port2 2.51e-2
L7 port1 5 1.85e-15
C7 5 6 6.69e-8
R7 6 port2 252
L8 port1 7 4.71e-15
C8 7 8 6.24e-10
R8 8 port2 58.0
.ENDS LQG15WZ1N0C02
*----------------------------------------------------------------------
*----------------------------------------------------------------------
* SPICE Model generated by Murata Manufacturing Co., Ltd.
* Copyright(C) Murata Manufacturing Co., Ltd.
* MURATA P/N : LQG15WZ1N0S02
* Property : L = 1[nH]
*----------------------------------------------------------------------
* Applicable Conditions:
*   Frequency Range = 1MHz - 20GHz
*   Temperature = 25 degC
*   DC Bias Current = 0 A
*   Small Signal Operation
*----------------------------------------------------------------------
.SUBCKT LQG15WZ1N0S02 port1 port2
C1 port1 port2 2.31e-15
L2 port1 1 2.56e-9
R2 1 port2 4.92e-2
R3 port1 port2 1.63e+3
L4 port1 2 8.11e-8
R4 2 port2 344
L5 port1 3 2.44e-8
R5 3 port2 18.0
L6 port1 4 1.00e-9
R6 4 port2 2.51e-2
L7 port1 5 1.85e-15
C7 5 6 6.69e-8
R7 6 port2 252
L8 port1 7 4.71e-15
C8 7 8 6.24e-10
R8 8 port2 58.0
.ENDS LQG15WZ1N0S02
*----------------------------------------------------------------------
*----------------------------------------------------------------------
* SPICE Model generated by Murata Manufacturing Co., Ltd.
* Copyright(C) Murata Manufacturing Co., Ltd.
* MURATA P/N : LQG15WZ1N1B02
* Property : L = 1.1[nH]
*----------------------------------------------------------------------
* Applicable Conditions:
*   Frequency Range = 1MHz - 20GHz
*   Temperature = 25 degC
*   DC Bias Current = 0 A
*   Small Signal Operation
*----------------------------------------------------------------------
.SUBCKT LQG15WZ1N1B02 port1 port2
C1 port1 port2 2.59e-15
L2 port1 1 1.62e-8
R2 1 port2 4.92e-2
R3 port1 port2 1.56e+3
L4 port1 2 5.88e-8
R4 2 port2 249
L5 port1 3 1.43e-8
R5 3 port2 10.6
L6 port1 4 8.71e-10
R6 4 port2 1.48e-2
L7 port1 5 1.47e-15
C7 5 6 8.82e-8
R7 6 port2 325
L8 port1 7 1.36e-14
C8 7 8 1.80e-9
R8 8 port2 58.0
.ENDS LQG15WZ1N1B02
*----------------------------------------------------------------------
*----------------------------------------------------------------------
* SPICE Model generated by Murata Manufacturing Co., Ltd.
* Copyright(C) Murata Manufacturing Co., Ltd.
* MURATA P/N : LQG15WZ1N1C02
* Property : L = 1.1[nH]
*----------------------------------------------------------------------
* Applicable Conditions:
*   Frequency Range = 1MHz - 20GHz
*   Temperature = 25 degC
*   DC Bias Current = 0 A
*   Small Signal Operation
*----------------------------------------------------------------------
.SUBCKT LQG15WZ1N1C02 port1 port2
C1 port1 port2 2.59e-15
L2 port1 1 1.62e-8
R2 1 port2 4.92e-2
R3 port1 port2 1.56e+3
L4 port1 2 5.88e-8
R4 2 port2 249
L5 port1 3 1.43e-8
R5 3 port2 10.6
L6 port1 4 8.71e-10
R6 4 port2 1.48e-2
L7 port1 5 1.47e-15
C7 5 6 8.82e-8
R7 6 port2 325
L8 port1 7 1.36e-14
C8 7 8 1.80e-9
R8 8 port2 58.0
.ENDS LQG15WZ1N1C02
*----------------------------------------------------------------------
*----------------------------------------------------------------------
* SPICE Model generated by Murata Manufacturing Co., Ltd.
* Copyright(C) Murata Manufacturing Co., Ltd.
* MURATA P/N : LQG15WZ1N1S02
* Property : L = 1.1[nH]
*----------------------------------------------------------------------
* Applicable Conditions:
*   Frequency Range = 1MHz - 20GHz
*   Temperature = 25 degC
*   DC Bias Current = 0 A
*   Small Signal Operation
*----------------------------------------------------------------------
.SUBCKT LQG15WZ1N1S02 port1 port2
C1 port1 port2 2.59e-15
L2 port1 1 1.62e-8
R2 1 port2 4.92e-2
R3 port1 port2 1.56e+3
L4 port1 2 5.88e-8
R4 2 port2 249
L5 port1 3 1.43e-8
R5 3 port2 10.6
L6 port1 4 8.71e-10
R6 4 port2 1.48e-2
L7 port1 5 1.47e-15
C7 5 6 8.82e-8
R7 6 port2 325
L8 port1 7 1.36e-14
C8 7 8 1.80e-9
R8 8 port2 58.0
.ENDS LQG15WZ1N1S02
*----------------------------------------------------------------------
*----------------------------------------------------------------------
* SPICE Model generated by Murata Manufacturing Co., Ltd.
* Copyright(C) Murata Manufacturing Co., Ltd.
* MURATA P/N : LQG15WZ1N2B02
* Property : L = 1.2[nH]
*----------------------------------------------------------------------
* Applicable Conditions:
*   Frequency Range = 1MHz - 20GHz
*   Temperature = 25 degC
*   DC Bias Current = 0 A
*   Small Signal Operation
*----------------------------------------------------------------------
.SUBCKT LQG15WZ1N2B02 port1 port2
C1 port1 port2 2.59e-15
L2 port1 1 1.34e-8
R2 1 port2 4.92e-2
R3 port1 port2 1.60e+3
L4 port1 2 7.93e-8
R4 2 port2 238
L5 port1 3 1.50e-8
R5 3 port2 11.1
L6 port1 4 1.00e-9
R6 4 port2 2.81e-2
L7 port1 5 1.50e-15
C7 5 6 8.23e-8
R7 6 port2 310
L8 port1 7 1.36e-14
C8 7 8 1.80e-9
R8 8 port2 58.0
.ENDS LQG15WZ1N2B02
*----------------------------------------------------------------------
*----------------------------------------------------------------------
* SPICE Model generated by Murata Manufacturing Co., Ltd.
* Copyright(C) Murata Manufacturing Co., Ltd.
* MURATA P/N : LQG15WZ1N2C02
* Property : L = 1.2[nH]
*----------------------------------------------------------------------
* Applicable Conditions:
*   Frequency Range = 1MHz - 20GHz
*   Temperature = 25 degC
*   DC Bias Current = 0 A
*   Small Signal Operation
*----------------------------------------------------------------------
.SUBCKT LQG15WZ1N2C02 port1 port2
C1 port1 port2 2.59e-15
L2 port1 1 1.34e-8
R2 1 port2 4.92e-2
R3 port1 port2 1.60e+3
L4 port1 2 7.93e-8
R4 2 port2 238
L5 port1 3 1.50e-8
R5 3 port2 11.1
L6 port1 4 1.00e-9
R6 4 port2 2.81e-2
L7 port1 5 1.50e-15
C7 5 6 8.23e-8
R7 6 port2 310
L8 port1 7 1.36e-14
C8 7 8 1.80e-9
R8 8 port2 58.0
.ENDS LQG15WZ1N2C02
*----------------------------------------------------------------------
*----------------------------------------------------------------------
* SPICE Model generated by Murata Manufacturing Co., Ltd.
* Copyright(C) Murata Manufacturing Co., Ltd.
* MURATA P/N : LQG15WZ1N2S02
* Property : L = 1.2[nH]
*----------------------------------------------------------------------
* Applicable Conditions:
*   Frequency Range = 1MHz - 20GHz
*   Temperature = 25 degC
*   DC Bias Current = 0 A
*   Small Signal Operation
*----------------------------------------------------------------------
.SUBCKT LQG15WZ1N2S02 port1 port2
C1 port1 port2 2.59e-15
L2 port1 1 1.34e-8
R2 1 port2 4.92e-2
R3 port1 port2 1.60e+3
L4 port1 2 7.93e-8
R4 2 port2 238
L5 port1 3 1.50e-8
R5 3 port2 11.1
L6 port1 4 1.00e-9
R6 4 port2 2.81e-2
L7 port1 5 1.50e-15
C7 5 6 8.23e-8
R7 6 port2 310
L8 port1 7 1.36e-14
C8 7 8 1.80e-9
R8 8 port2 58.0
.ENDS LQG15WZ1N2S02
*----------------------------------------------------------------------
*----------------------------------------------------------------------
* SPICE Model generated by Murata Manufacturing Co., Ltd.
* Copyright(C) Murata Manufacturing Co., Ltd.
* MURATA P/N : LQG15WZ1N3B02
* Property : L = 1.3[nH]
*----------------------------------------------------------------------
* Applicable Conditions:
*   Frequency Range = 1MHz - 20GHz
*   Temperature = 25 degC
*   DC Bias Current = 0 A
*   Small Signal Operation
*----------------------------------------------------------------------
.SUBCKT LQG15WZ1N3B02 port1 port2
C1 port1 port2 2.59e-15
L2 port1 1 1.34e-8
R2 1 port2 4.92e-2
R3 port1 port2 1.60e+3
L4 port1 2 7.93e-8
R4 2 port2 238
L5 port1 3 1.50e-8
R5 3 port2 11.1
L6 port1 4 1.00e-9
R6 4 port2 2.81e-2
L7 port1 5 1.50e-15
C7 5 6 8.23e-8
R7 6 port2 310
L8 port1 7 1.36e-14
C8 7 8 1.80e-9
R8 8 port2 58.0
.ENDS LQG15WZ1N3B02
*----------------------------------------------------------------------
*----------------------------------------------------------------------
* SPICE Model generated by Murata Manufacturing Co., Ltd.
* Copyright(C) Murata Manufacturing Co., Ltd.
* MURATA P/N : LQG15WZ1N3C02
* Property : L = 1.3[nH]
*----------------------------------------------------------------------
* Applicable Conditions:
*   Frequency Range = 1MHz - 20GHz
*   Temperature = 25 degC
*   DC Bias Current = 0 A
*   Small Signal Operation
*----------------------------------------------------------------------
.SUBCKT LQG15WZ1N3C02 port1 port2
C1 port1 port2 2.59e-15
L2 port1 1 1.34e-8
R2 1 port2 4.92e-2
R3 port1 port2 1.60e+3
L4 port1 2 7.93e-8
R4 2 port2 238
L5 port1 3 1.50e-8
R5 3 port2 11.1
L6 port1 4 1.00e-9
R6 4 port2 2.81e-2
L7 port1 5 1.50e-15
C7 5 6 8.23e-8
R7 6 port2 310
L8 port1 7 1.36e-14
C8 7 8 1.80e-9
R8 8 port2 58.0
.ENDS LQG15WZ1N3C02
*----------------------------------------------------------------------
*----------------------------------------------------------------------
* SPICE Model generated by Murata Manufacturing Co., Ltd.
* Copyright(C) Murata Manufacturing Co., Ltd.
* MURATA P/N : LQG15WZ1N3S02
* Property : L = 1.3[nH]
*----------------------------------------------------------------------
* Applicable Conditions:
*   Frequency Range = 1MHz - 20GHz
*   Temperature = 25 degC
*   DC Bias Current = 0 A
*   Small Signal Operation
*----------------------------------------------------------------------
.SUBCKT LQG15WZ1N3S02 port1 port2
C1 port1 port2 2.59e-15
L2 port1 1 1.34e-8
R2 1 port2 4.92e-2
R3 port1 port2 1.60e+3
L4 port1 2 7.93e-8
R4 2 port2 238
L5 port1 3 1.50e-8
R5 3 port2 11.1
L6 port1 4 1.00e-9
R6 4 port2 2.81e-2
L7 port1 5 1.50e-15
C7 5 6 8.23e-8
R7 6 port2 310
L8 port1 7 1.36e-14
C8 7 8 1.80e-9
R8 8 port2 58.0
.ENDS LQG15WZ1N3S02
*----------------------------------------------------------------------
*----------------------------------------------------------------------
* SPICE Model generated by Murata Manufacturing Co., Ltd.
* Copyright(C) Murata Manufacturing Co., Ltd.
* MURATA P/N : LQG15WZ1N5B02
* Property : L = 1.5[nH]
*----------------------------------------------------------------------
* Applicable Conditions:
*   Frequency Range = 1MHz - 20GHz
*   Temperature = 25 degC
*   DC Bias Current = 0 A
*   Small Signal Operation
*----------------------------------------------------------------------
.SUBCKT LQG15WZ1N5B02 port1 port2
C1 port1 port2 2.59e-15
L2 port1 1 1.73e-9
R2 1 port2 1.43e-2
R3 port1 port2 2.15e+3
L4 port1 2 3.54e-8
R4 2 port2 128
L5 port1 3 1.50e-8
R5 3 port2 6.11
L6 port1 4 3.09e-9
R6 4 port2 2.88e-2
L7 port1 5 1.50e-15
C7 5 6 8.23e-8
R7 6 port2 310
L8 port1 7 1.36e-14
C8 7 8 1.80e-9
R8 8 port2 58.0
.ENDS LQG15WZ1N5B02
*----------------------------------------------------------------------
*----------------------------------------------------------------------
* SPICE Model generated by Murata Manufacturing Co., Ltd.
* Copyright(C) Murata Manufacturing Co., Ltd.
* MURATA P/N : LQG15WZ1N5C02
* Property : L = 1.5[nH]
*----------------------------------------------------------------------
* Applicable Conditions:
*   Frequency Range = 1MHz - 20GHz
*   Temperature = 25 degC
*   DC Bias Current = 0 A
*   Small Signal Operation
*----------------------------------------------------------------------
.SUBCKT LQG15WZ1N5C02 port1 port2
C1 port1 port2 2.59e-15
L2 port1 1 1.73e-9
R2 1 port2 1.43e-2
R3 port1 port2 2.15e+3
L4 port1 2 3.54e-8
R4 2 port2 128
L5 port1 3 1.50e-8
R5 3 port2 6.11
L6 port1 4 3.09e-9
R6 4 port2 2.88e-2
L7 port1 5 1.50e-15
C7 5 6 8.23e-8
R7 6 port2 310
L8 port1 7 1.36e-14
C8 7 8 1.80e-9
R8 8 port2 58.0
.ENDS LQG15WZ1N5C02
*----------------------------------------------------------------------
*----------------------------------------------------------------------
* SPICE Model generated by Murata Manufacturing Co., Ltd.
* Copyright(C) Murata Manufacturing Co., Ltd.
* MURATA P/N : LQG15WZ1N5S02
* Property : L = 1.5[nH]
*----------------------------------------------------------------------
* Applicable Conditions:
*   Frequency Range = 1MHz - 20GHz
*   Temperature = 25 degC
*   DC Bias Current = 0 A
*   Small Signal Operation
*----------------------------------------------------------------------
.SUBCKT LQG15WZ1N5S02 port1 port2
C1 port1 port2 2.59e-15
L2 port1 1 1.73e-9
R2 1 port2 1.43e-2
R3 port1 port2 2.15e+3
L4 port1 2 3.54e-8
R4 2 port2 128
L5 port1 3 1.50e-8
R5 3 port2 6.11
L6 port1 4 3.09e-9
R6 4 port2 2.88e-2
L7 port1 5 1.50e-15
C7 5 6 8.23e-8
R7 6 port2 310
L8 port1 7 1.36e-14
C8 7 8 1.80e-9
R8 8 port2 58.0
.ENDS LQG15WZ1N5S02
*----------------------------------------------------------------------
*----------------------------------------------------------------------
* SPICE Model generated by Murata Manufacturing Co., Ltd.
* Copyright(C) Murata Manufacturing Co., Ltd.
* MURATA P/N : LQG15WZ1N6B02
* Property : L = 1.6[nH]
*----------------------------------------------------------------------
* Applicable Conditions:
*   Frequency Range = 1MHz - 20GHz
*   Temperature = 25 degC
*   DC Bias Current = 0 A
*   Small Signal Operation
*----------------------------------------------------------------------
.SUBCKT LQG15WZ1N6B02 port1 port2
C1 port1 port2 2.59e-15
L2 port1 1 4.99e-9
R2 1 port2 1.22e-2
R3 port1 port2 2.36e+3
L4 port1 2 5.12e-8
R4 2 port2 143
L5 port1 3 1.50e-8
R5 3 port2 4.13
L6 port1 4 2.14e-9
R6 4 port2 5.24e-2
L7 port1 5 1.50e-15
C7 5 6 8.23e-8
R7 6 port2 310
L8 port1 7 3.41e-14
C8 7 8 7.51e-10
R8 8 port2 4.50e-4