*----------------------------------------------------------------------
* SPICE Model generated by Murata Manufacturing Co., Ltd.
* Copyright(C) Murata Manufacturing Co., Ltd.
* MURATA P/N : LQG15HS10NG02
* Property : L = 10[nH]
*----------------------------------------------------------------------
* Applicable Conditions:
*   Frequency Range = 1MHz - 20GHz
*   Temperature = 25 degC
*   DC Bias Current = 0 A
*   Small Signal Operation
*----------------------------------------------------------------------
.SUBCKT LQG15HS10NG02 port1 port2
C1 port1 port2 4.80e-14
L2 port1 1 1.35e-8
R2 1 port2 1.83e-1
R3 port1 port2 1.33e+4
L4 port1 2 2.28e-7
R4 2 port2 866
L5 port1 3 1.02e-7
R5 3 port2 53.2
L6 port1 4 5.64e-8
R6 4 port2 3.91
L7 port1 5 1.43e-7
C7 5 6 1.73e-15
R7 6 port2 152
L8 port1 7 1.05e-9
C8 7 8 8.82e-14
R8 8 port2 2.34
L9 port1 9 1.07e-7
C9 9 10 1.21e-15
R9 10 port2 102
L10 port1 11 3.06e-9
C10 11 12 2.10e-14
R10 12 port2 19.2
.ENDS LQG15HS10NG02
*----------------------------------------------------------------------
*----------------------------------------------------------------------
* SPICE Model generated by Murata Manufacturing Co., Ltd.
* Copyright(C) Murata Manufacturing Co., Ltd.
* MURATA P/N : LQG15HS10NH02
* Property : L = 10[nH]
*----------------------------------------------------------------------
* Applicable Conditions:
*   Frequency Range = 1MHz - 20GHz
*   Temperature = 25 degC
*   DC Bias Current = 0 A
*   Small Signal Operation
*----------------------------------------------------------------------
.SUBCKT LQG15HS10NH02 port1 port2
C1 port1 port2 4.80e-14
L2 port1 1 1.35e-8
R2 1 port2 1.83e-1
R3 port1 port2 1.33e+4
L4 port1 2 2.28e-7
R4 2 port2 866
L5 port1 3 1.02e-7
R5 3 port2 53.2
L6 port1 4 5.64e-8
R6 4 port2 3.91
L7 port1 5 1.43e-7
C7 5 6 1.73e-15
R7 6 port2 152
L8 port1 7 1.05e-9
C8 7 8 8.82e-14
R8 8 port2 2.34
L9 port1 9 1.07e-7
C9 9 10 1.21e-15
R9 10 port2 102
L10 port1 11 3.06e-9
C10 11 12 2.10e-14
R10 12 port2 19.2
.ENDS LQG15HS10NH02
*----------------------------------------------------------------------
*----------------------------------------------------------------------
* SPICE Model generated by Murata Manufacturing Co., Ltd.
* Copyright(C) Murata Manufacturing Co., Ltd.
* MURATA P/N : LQG15HS10NJ02
* Property : L = 10[nH]
*----------------------------------------------------------------------
* Applicable Conditions:
*   Frequency Range = 1MHz - 20GHz
*   Temperature = 25 degC
*   DC Bias Current = 0 A
*   Small Signal Operation
*----------------------------------------------------------------------
.SUBCKT LQG15HS10NJ02 port1 port2
C1 port1 port2 4.80e-14
L2 port1 1 1.35e-8
R2 1 port2 1.83e-1
R3 port1 port2 1.33e+4
L4 port1 2 2.28e-7
R4 2 port2 866
L5 port1 3 1.02e-7
R5 3 port2 53.2
L6 port1 4 5.64e-8
R6 4 port2 3.91
L7 port1 5 1.43e-7
C7 5 6 1.73e-15
R7 6 port2 152
L8 port1 7 1.05e-9
C8 7 8 8.82e-14
R8 8 port2 2.34
L9 port1 9 1.07e-7
C9 9 10 1.21e-15
R9 10 port2 102
L10 port1 11 3.06e-9
C10 11 12 2.10e-14
R10 12 port2 19.2
.ENDS LQG15HS10NJ02
*----------------------------------------------------------------------
*----------------------------------------------------------------------
* SPICE Model generated by Murata Manufacturing Co., Ltd.
* Copyright(C) Murata Manufacturing Co., Ltd.
* MURATA P/N : LQG15HS12NG02
* Property : L = 12[nH]
*----------------------------------------------------------------------
* Applicable Conditions:
*   Frequency Range = 1MHz - 20GHz
*   Temperature = 25 degC
*   DC Bias Current = 0 A
*   Small Signal Operation
*----------------------------------------------------------------------
.SUBCKT LQG15HS12NG02 port1 port2
C1 port1 port2 1.70e-14
L2 port1 1 1.52e-8
R2 1 port2 1.78e-1
R3 port1 port2 1.01e+4
L4 port1 2 2.62e-7
R4 2 port2 827
L5 port1 3 1.28e-7
R5 3 port2 64.0
L6 port1 4 7.78e-8
R6 4 port2 6.05
L7 port1 5 1.43e-7
C7 5 6 1.73e-15
R7 6 port2 152
L8 port1 7 1.15e-9
C8 7 8 1.01e-13
R8 8 port2 3.02
L9 port1 9 8.72e-9
C9 9 10 1.56e-14
R9 10 port2 8.12
L10 port1 11 9.04e-10
C10 11 12 7.45e-14
R10 12 port2 3.49
.ENDS LQG15HS12NG02
*----------------------------------------------------------------------
*----------------------------------------------------------------------
* SPICE Model generated by Murata Manufacturing Co., Ltd.
* Copyright(C) Murata Manufacturing Co., Ltd.
* MURATA P/N : LQG15HS12NH02
* Property : L = 12[nH]
*----------------------------------------------------------------------
* Applicable Conditions:
*   Frequency Range = 1MHz - 20GHz
*   Temperature = 25 degC
*   DC Bias Current = 0 A
*   Small Signal Operation
*----------------------------------------------------------------------
.SUBCKT LQG15HS12NH02 port1 port2
C1 port1 port2 1.70e-14
L2 port1 1 1.52e-8
R2 1 port2 1.78e-1
R3 port1 port2 1.01e+4
L4 port1 2 2.62e-7
R4 2 port2 827
L5 port1 3 1.28e-7
R5 3 port2 64.0
L6 port1 4 7.78e-8
R6 4 port2 6.05
L7 port1 5 1.43e-7
C7 5 6 1.73e-15
R7 6 port2 152
L8 port1 7 1.15e-9
C8 7 8 1.01e-13
R8 8 port2 3.02
L9 port1 9 8.72e-9
C9 9 10 1.56e-14
R9 10 port2 8.12
L10 port1 11 9.04e-10
C10 11 12 7.45e-14
R10 12 port2 3.49
.ENDS LQG15HS12NH02
*----------------------------------------------------------------------
*----------------------------------------------------------------------
* SPICE Model generated by Murata Manufacturing Co., Ltd.
* Copyright(C) Murata Manufacturing Co., Ltd.
* MURATA P/N : LQG15HS12NJ02
* Property : L = 12[nH]
*----------------------------------------------------------------------
* Applicable Conditions:
*   Frequency Range = 1MHz - 20GHz
*   Temperature = 25 degC
*   DC Bias Current = 0 A
*   Small Signal Operation
*----------------------------------------------------------------------
.SUBCKT LQG15HS12NJ02 port1 port2
C1 port1 port2 1.70e-14
L2 port1 1 1.52e-8
R2 1 port2 1.78e-1
R3 port1 port2 1.01e+4
L4 port1 2 2.62e-7
R4 2 port2 827
L5 port1 3 1.28e-7
R5 3 port2 64.0
L6 port1 4 7.78e-8
R6 4 port2 6.05
L7 port1 5 1.43e-7
C7 5 6 1.73e-15
R7 6 port2 152
L8 port1 7 1.15e-9
C8 7 8 1.01e-13
R8 8 port2 3.02
L9 port1 9 8.72e-9
C9 9 10 1.56e-14
R9 10 port2 8.12
L10 port1 11 9.04e-10
C10 11 12 7.45e-14
R10 12 port2 3.49
.ENDS LQG15HS12NJ02
*----------------------------------------------------------------------
*----------------------------------------------------------------------
* SPICE Model generated by Murata Manufacturing Co., Ltd.
* Copyright(C) Murata Manufacturing Co., Ltd.
* MURATA P/N : LQG15HS15NG02
* Property : L = 15[nH]
*----------------------------------------------------------------------
* Applicable Conditions:
*   Frequency Range = 1MHz - 20GHz
*   Temperature = 25 degC
*   DC Bias Current = 0 A
*   Small Signal Operation
*----------------------------------------------------------------------
.SUBCKT LQG15HS15NG02 port1 port2
C1 port1 port2 4.79e-15
L2 port1 1 1.90e-8
R2 1 port2 2.09e-1
R3 port1 port2 1.33e+4
L4 port1 2 3.08e-7
R4 2 port2 950
L5 port1 3 1.57e-7
R5 3 port2 78.7
L6 port1 4 1.03e-7
R6 4 port2 7.98
L7 port1 5 1.35e-9
C7 5 6 1.05e-13
R7 6 port2 6.16
L8 port1 7 8.63e-10
C8 7 8 8.55e-14
R8 8 port2 9.39e-1
.ENDS LQG15HS15NG02
*----------------------------------------------------------------------
*----------------------------------------------------------------------
* SPICE Model generated by Murata Manufacturing Co., Ltd.
* Copyright(C) Murata Manufacturing Co., Ltd.
* MURATA P/N : LQG15HS15NH02
* Property : L = 15[nH]
*----------------------------------------------------------------------
* Applicable Conditions:
*   Frequency Range = 1MHz - 20GHz
*   Temperature = 25 degC
*   DC Bias Current = 0 A
*   Small Signal Operation
*----------------------------------------------------------------------
.SUBCKT LQG15HS15NH02 port1 port2
C1 port1 port2 4.79e-15
L2 port1 1 1.90e-8
R2 1 port2 2.09e-1
R3 port1 port2 1.33e+4
L4 port1 2 3.08e-7
R4 2 port2 950
L5 port1 3 1.57e-7
R5 3 port2 78.7
L6 port1 4 1.03e-7
R6 4 port2 7.98
L7 port1 5 1.35e-9
C7 5 6 1.05e-13
R7 6 port2 6.16
L8 port1 7 8.63e-10
C8 7 8 8.55e-14
R8 8 port2 9.39e-1
.ENDS LQG15HS15NH02
*----------------------------------------------------------------------
*----------------------------------------------------------------------
* SPICE Model generated by Murata Manufacturing Co., Ltd.
* Copyright(C) Murata Manufacturing Co., Ltd.
* MURATA P/N : LQG15HS15NJ02
* Property : L = 15[nH]
*----------------------------------------------------------------------
* Applicable Conditions:
*   Frequency Range = 1MHz - 20GHz
*   Temperature = 25 degC
*   DC Bias Current = 0 A
*   Small Signal Operation
*----------------------------------------------------------------------
.SUBCKT LQG15HS15NJ02 port1 port2
C1 port1 port2 4.79e-15
L2 port1 1 1.90e-8
R2 1 port2 2.09e-1
R3 port1 port2 1.33e+4
L4 port1 2 3.08e-7
R4 2 port2 950
L5 port1 3 1.57e-7
R5 3 port2 78.7
L6 port1 4 1.03e-7
R6 4 port2 7.98
L7 port1 5 1.35e-9
C7 5 6 1.05e-13
R7 6 port2 6.16
L8 port1 7 8.63e-10
C8 7 8 8.55e-14
R8 8 port2 9.39e-1
.ENDS LQG15HS15NJ02
*----------------------------------------------------------------------
*----------------------------------------------------------------------
* SPICE Model generated by Murata Manufacturing Co., Ltd.
* Copyright(C) Murata Manufacturing Co., Ltd.
* MURATA P/N : LQG15HS18NG02
* Property : L = 18[nH]
*----------------------------------------------------------------------
* Applicable Conditions:
*   Frequency Range = 1MHz - 20GHz
*   Temperature = 25 degC
*   DC Bias Current = 0 A
*   Small Signal Operation
*----------------------------------------------------------------------
.SUBCKT LQG15HS18NG02 port1 port2
C1 port1 port2 8.52e-15
L2 port1 1 2.28e-8
R2 1 port2 2.40e-1
R3 port1 port2 1.46e+4
L4 port1 2 3.88e-7
R4 2 port2 1.25e+3
L5 port1 3 1.77e-7
R5 3 port2 88.3
L6 port1 4 1.18e-7
R6 4 port2 9.16
L7 port1 5 5.13e-9
C7 5 6 3.34e-14
R7 6 port2 11.7
L8 port1 7 4.85e-10
C8 7 8 1.45e-13
R8 8 port2 1.10
.ENDS LQG15HS18NG02
*----------------------------------------------------------------------
*----------------------------------------------------------------------
* SPICE Model generated by Murata Manufacturing Co., Ltd.
* Copyright(C) Murata Manufacturing Co., Ltd.
* MURATA P/N : LQG15HS18NH02
* Property : L = 18[nH]
*----------------------------------------------------------------------
* Applicable Conditions:
*   Frequency Range = 1MHz - 20GHz
*   Temperature = 25 degC
*   DC Bias Current = 0 A
*   Small Signal Operation
*----------------------------------------------------------------------
.SUBCKT LQG15HS18NH02 port1 port2
C1 port1 port2 8.52e-15
L2 port1 1 2.28e-8
R2 1 port2 2.40e-1
R3 port1 port2 1.46e+4
L4 port1 2 3.88e-7
R4 2 port2 1.25e+3
L5 port1 3 1.77e-7
R5 3 port2 88.3
L6 port1 4 1.18e-7
R6 4 port2 9.16
L7 port1 5 5.13e-9
C7 5 6 3.34e-14
R7 6 port2 11.7
L8 port1 7 4.85e-10
C8 7 8 1.45e-13
R8 8 port2 1.10
.ENDS LQG15HS18NH02
*----------------------------------------------------------------------
*----------------------------------------------------------------------
* SPICE Model generated by Murata Manufacturing Co., Ltd.
* Copyright(C) Murata Manufacturing Co., Ltd.
* MURATA P/N : LQG15HS18NJ02
* Property : L = 18[nH]
*----------------------------------------------------------------------
* Applicable Conditions:
*   Frequency Range = 1MHz - 20GHz
*   Temperature = 25 degC
*   DC Bias Current = 0 A
*   Small Signal Operation
*----------------------------------------------------------------------
.SUBCKT LQG15HS18NJ02 port1 port2
C1 port1 port2 8.52e-15
L2 port1 1 2.28e-8
R2 1 port2 2.40e-1
R3 port1 port2 1.46e+4
L4 port1 2 3.88e-7
R4 2 port2 1.25e+3
L5 port1 3 1.77e-7
R5 3 port2 88.3
L6 port1 4 1.18e-7
R6 4 port2 9.16
L7 port1 5 5.13e-9
C7 5 6 3.34e-14
R7 6 port2 11.7
L8 port1 7 4.85e-10
C8 7 8 1.45e-13
R8 8 port2 1.10
.ENDS LQG15HS18NJ02
*----------------------------------------------------------------------
*----------------------------------------------------------------------
* SPICE Model generated by Murata Manufacturing Co., Ltd.
* Copyright(C) Murata Manufacturing Co., Ltd.
* MURATA P/N : LQG15HS1N0B02
* Property : L = 1[nH]
*----------------------------------------------------------------------
* Applicable Conditions:
*   Frequency Range = 1MHz - 20GHz
*   Temperature = 25 degC
*   DC Bias Current = 0 A
*   Small Signal Operation
*----------------------------------------------------------------------
.SUBCKT LQG15HS1N0B02 port1 port2
C1 port1 port2 7.26e-15
L2 port1 1 1.38e-9
R2 1 port2 1.97e-2
R3 port1 port2 3.50e+3
L4 port1 2 3.78e-8
R4 2 port2 114
L5 port1 3 1.34e-8
R5 3 port2 4.96
L6 port1 4 1.26e-7
R6 4 port2 23.3
L7 port1 5 7.81e-10
C7 5 6 8.23e-14
R7 6 port2 6.03e-1
.ENDS LQG15HS1N0B02
*----------------------------------------------------------------------
*----------------------------------------------------------------------
* SPICE Model generated by Murata Manufacturing Co., Ltd.
* Copyright(C) Murata Manufacturing Co., Ltd.
* MURATA P/N : LQG15HS1N0C02
* Property : L = 1[nH]
*----------------------------------------------------------------------
* Applicable Conditions:
*   Frequency Range = 1MHz - 20GHz
*   Temperature = 25 degC
*   DC Bias Current = 0 A
*   Small Signal Operation
*----------------------------------------------------------------------
.SUBCKT LQG15HS1N0C02 port1 port2
C1 port1 port2 7.26e-15
L2 port1 1 1.38e-9
R2 1 port2 1.97e-2
R3 port1 port2 3.50e+3
L4 port1 2 3.78e-8
R4 2 port2 114
L5 port1 3 1.34e-8
R5 3 port2 4.96
L6 port1 4 1.26e-7
R6 4 port2 23.3
L7 port1 5 7.81e-10
C7 5 6 8.23e-14
R7 6 port2 6.03e-1
.ENDS LQG15HS1N0C02
*----------------------------------------------------------------------
*----------------------------------------------------------------------
* SPICE Model generated by Murata Manufacturing Co., Ltd.
* Copyright(C) Murata Manufacturing Co., Ltd.
* MURATA P/N : LQG15HS1N0S02
* Property : L = 1[nH]
*----------------------------------------------------------------------
* Applicable Conditions:
*   Frequency Range = 1MHz - 20GHz
*   Temperature = 25 degC
*   DC Bias Current = 0 A
*   Small Signal Operation
*----------------------------------------------------------------------
.SUBCKT LQG15HS1N0S02 port1 port2
C1 port1 port2 7.26e-15
L2 port1 1 1.38e-9
R2 1 port2 1.97e-2
R3 port1 port2 3.50e+3
L4 port1 2 3.78e-8
R4 2 port2 114
L5 port1 3 1.34e-8
R5 3 port2 4.96
L6 port1 4 1.26e-7
R6 4 port2 23.3
L7 port1 5 7.81e-10
C7 5 6 8.23e-14
R7 6 port2 6.03e-1
.ENDS LQG15HS1N0S02
*----------------------------------------------------------------------
*----------------------------------------------------------------------
* SPICE Model generated by Murata Manufacturing Co., Ltd.
* Copyright(C) Murata Manufacturing Co., Ltd.
* MURATA P/N : LQG15HS1N1B02
* Property : L = 1.1[nH]
*----------------------------------------------------------------------
* Applicable Conditions:
*   Frequency Range = 1MHz - 20GHz
*   Temperature = 25 degC
*   DC Bias Current = 0 A
*   Small Signal Operation
*----------------------------------------------------------------------
.SUBCKT LQG15HS1N1B02 port1 port2
C1 port1 port2 6.18e-17
L2 port1 1 1.55e-9
R2 1 port2 1.93e-2
R3 port1 port2 3.58e+3
L4 port1 2 4.89e-8
R4 2 port2 177
L5 port1 3 2.85e-8
R5 3 port2 20.7
L6 port1 4 1.51e-8
R6 4 port2 2.50
L7 port1 5 3.74e-8
C7 5 6 3.43e-15
R7 6 port2 97.8
L8 port1 7 7.35e-10
C8 7 8 1.10e-13
R8 8 port2 5.54e-1
.ENDS LQG15HS1N1B02
*----------------------------------------------------------------------
*----------------------------------------------------------------------
* SPICE Model generated by Murata Manufacturing Co., Ltd.
* Copyright(C) Murata Manufacturing Co., Ltd.
* MURATA P/N : LQG15HS1N1C02
* Property : L = 1.1[nH]
*----------------------------------------------------------------------
* Applicable Conditions:
*   Frequency Range = 1MHz - 20GHz
*   Temperature = 25 degC
*   DC Bias Current = 0 A
*   Small Signal Operation
*----------------------------------------------------------------------
.SUBCKT LQG15HS1N1C02 port1 port2
C1 port1 port2 6.18e-17
L2 port1 1 1.55e-9
R2 1 port2 1.93e-2
R3 port1 port2 3.58e+3
L4 port1 2 4.89e-8
R4 2 port2 177
L5 port1 3 2.85e-8
R5 3 port2 20.7
L6 port1 4 1.51e-8
R6 4 port2 2.50
L7 port1 5 3.74e-8
C7 5 6 3.43e-15
R7 6 port2 97.8
L8 port1 7 7.35e-10
C8 7 8 1.10e-13
R8 8 port2 5.54e-1
.ENDS LQG15HS1N1C02
*----------------------------------------------------------------------
*----------------------------------------------------------------------
* SPICE Model generated by Murata Manufacturing Co., Ltd.
* Copyright(C) Murata Manufacturing Co., Ltd.
* MURATA P/N : LQG15HS1N1S02
* Property : L = 1.1[nH]
*----------------------------------------------------------------------
* Applicable Conditions:
*   Frequency Range = 1MHz - 20GHz
*   Temperature = 25 degC
*   DC Bias Current = 0 A
*   Small Signal Operation
*----------------------------------------------------------------------
.SUBCKT LQG15HS1N1S02 port1 port2
C1 port1 port2 6.18e-17
L2 port1 1 1.55e-9
R2 1 port2 1.93e-2
R3 port1 port2 3.58e+3
L4 port1 2 4.89e-8
R4 2 port2 177
L5 port1 3 2.85e-8
R5 3 port2 20.7
L6 port1 4 1.51e-8
R6 4 port2 2.50
L7 port1 5 3.74e-8
C7 5 6 3.43e-15
R7 6 port2 97.8
L8 port1 7 7.35e-10
C8 7 8 1.10e-13
R8 8 port2 5.54e-1
.ENDS LQG15HS1N1S02
*----------------------------------------------------------------------
*----------------------------------------------------------------------
* SPICE Model generated by Murata Manufacturing Co., Ltd.
* Copyright(C) Murata Manufacturing Co., Ltd.
* MURATA P/N : LQG15HS1N2B02
* Property : L = 1.2[nH]
*----------------------------------------------------------------------
* Applicable Conditions:
*   Frequency Range = 1MHz - 20GHz
*   Temperature = 25 degC
*   DC Bias Current = 0 A
*   Small Signal Operation
*----------------------------------------------------------------------
.SUBCKT LQG15HS1N2B02 port1 port2
C1 port1 port2 6.18e-17
L2 port1 1 1.65e-9
R2 1 port2 2.16e-2
R3 port1 port2 3.50e+3
L4 port1 2 4.56e-8
R4 2 port2 155
L5 port1 3 2.85e-8
R5 3 port2 16.4
L6 port1 4 1.70e-8
R6 4 port2 2.80
L7 port1 5 3.74e-8
C7 5 6 3.59e-15
R7 6 port2 30.2
L8 port1 7 7.69e-10
C8 7 8 1.45e-13
R8 8 port2 8.20e-1
.ENDS LQG15HS1N2B02
*----------------------------------------------------------------------
*----------------------------------------------------------------------
* SPICE Model generated by Murata Manufacturing Co., Ltd.
* Copyright(C) Murata Manufacturing Co., Ltd.
* MURATA P/N : LQG15HS1N2C02
* Property : L = 1.2[nH]
*----------------------------------------------------------------------
* Applicable Conditions:
*   Frequency Range = 1MHz - 20GHz
*   Temperature = 25 degC
*   DC Bias Current = 0 A
*   Small Signal Operation
*----------------------------------------------------------------------
.SUBCKT LQG15HS1N2C02 port1 port2
C1 port1 port2 6.18e-17
L2 port1 1 1.65e-9
R2 1 port2 2.16e-2
R3 port1 port2 3.50e+3
L4 port1 2 4.56e-8
R4 2 port2 155
L5 port1 3 2.85e-8
R5 3 port2 16.4
L6 port1 4 1.70e-8
R6 4 port2 2.80
L7 port1 5 3.74e-8
C7 5 6 3.59e-15
R7 6 port2 30.2
L8 port1 7 7.69e-10
C8 7 8 1.45e-13
R8 8 port2 8.20e-1
.ENDS LQG15HS1N2C02
*----------------------------------------------------------------------
*----------------------------------------------------------------------
* SPICE Model generated by Murata Manufacturing Co., Ltd.
* Copyright(C) Murata Manufacturing Co., Ltd.
* MURATA P/N : LQG15HS1N2S02
* Property : L = 1.2[nH]
*----------------------------------------------------------------------
* Applicable Conditions:
*   Frequency Range = 1MHz - 20GHz
*   Temperature = 25 degC
*   DC Bias Current = 0 A
*   Small Signal Operation
*----------------------------------------------------------------------
.SUBCKT LQG15HS1N2S02 port1 port2
C1 port1 port2 6.18e-17
L2 port1 1 1.65e-9
R2 1 port2 2.16e-2
R3 port1 port2 3.50e+3
L4 port1 2 4.56e-8
R4 2 port2 155
L5 port1 3 2.85e-8
R5 3 port2 16.4
L6 port1 4 1.70e-8
R6 4 port2 2.80
L7 port1 5 3.74e-8
C7 5 6 3.59e-15
R7 6 port2 30.2
L8 port1 7 7.69e-10
C8 7 8 1.45e-13
R8 8 port2 8.20e-1
.ENDS LQG15HS1N2S02
*----------------------------------------------------------------------
*----------------------------------------------------------------------
* SPICE Model generated by Murata Manufacturing Co., Ltd.
* Copyright(C) Murata Manufacturing Co., Ltd.
* MURATA P/N : LQG15HS1N3B02
* Property : L = 1.3[nH]
*----------------------------------------------------------------------
* Applicable Conditions:
*   Frequency Range = 1MHz - 20GHz
*   Temperature = 25 degC
*   DC Bias Current = 0 A
*   Small Signal Operation
*----------------------------------------------------------------------
.SUBCKT LQG15HS1N3B02 port1 port2
C1 port1 port2 6.93e-15
L2 port1 1 1.69e-9
R2 1 port2 2.48e-2
R3 port1 port2 4.21e+3
L4 port1 2 4.12e-8
R4 2 port2 138
L5 port1 3 3.49e-8
R5 3 port2 13.3
L6 port1 4 2.38e-8
R6 4 port2 6.31
L7 port1 5 5.41e-8
C7 5 6 2.37e-15
R7 6 port2 44.7
L8 port1 7 7.69e-10
C8 7 8 2.19e-13
R8 8 port2 5.94e-1
.ENDS LQG15HS1N3B02
*----------------------------------------------------------------------
*----------------------------------------------------------------------
* SPICE Model generated by Murata Manufacturing Co., Ltd.
* Copyright(C) Murata Manufacturing Co., Ltd.
* MURATA P/N : LQG15HS1N3C02
* Property : L = 1.3[nH]
*----------------------------------------------------------------------
* Applicable Conditions:
*   Frequency Range = 1MHz - 20GHz
*   Temperature = 25 degC
*   DC Bias Current = 0 A
*   Small Signal Operation
*----------------------------------------------------------------------
.SUBCKT LQG15HS1N3C02 port1 port2
C1 port1 port2 6.93e-15
L2 port1 1 1.69e-9
R2 1 port2 2.48e-2
R3 port1 port2 4.21e+3
L4 port1 2 4.12e-8
R4 2 port2 138
L5 port1 3 3.49e-8
R5 3 port2 13.3
L6 port1 4 2.38e-8
R6 4 port2 6.31
L7 port1 5 5.41e-8
C7 5 6 2.37e-15
R7 6 port2 44.7
L8 port1 7 7.69e-10
C8 7 8 2.19e-13
R8 8 port2 5.94e-1
.ENDS LQG15HS1N3C02
*----------------------------------------------------------------------
*----------------------------------------------------------------------
* SPICE Model generated by Murata Manufacturing Co., Ltd.
* Copyright(C) Murata Manufacturing Co., Ltd.
* MURATA P/N : LQG15HS1N3S02
* Property : L = 1.3[nH]
*----------------------------------------------------------------------
* Applicable Conditions:
*   Frequency Range = 1MHz - 20GHz
*   Temperature = 25 degC
*   DC Bias Current = 0 A
*   Small Signal Operation
*----------------------------------------------------------------------
.SUBCKT LQG15HS1N3S02 port1 port2
C1 port1 port2 6.93e-15
L2 port1 1 1.69e-9
R2 1 port2 2.48e-2
R3 port1 port2 4.21e+3
L4 port1 2 4.12e-8
R4 2 port2 138
L5 port1 3 3.49e-8
R5 3 port2 13.3
L6 port1 4 2.38e-8
R6 4 port2 6.31
L7 port1 5 5.41e-8
C7 5 6 2.37e-15
R7 6 port2 44.7
L8 port1 7 7.69e-10
C8 7 8 2.19e-13
R8 8 port2 5.94e-1
.ENDS LQG15HS1N3S02
*----------------------------------------------------------------------
*----------------------------------------------------------------------
* SPICE Model generated by Murata Manufacturing Co., Ltd.
* Copyright(C) Murata Manufacturing Co., Ltd.
* MURATA P/N : LQG15HS1N5B02
* Property : L = 1.5[nH]
*----------------------------------------------------------------------
* Applicable Conditions:
*   Frequency Range = 1MHz - 20GHz
*   Temperature = 25 degC
*   DC Bias Current = 0 A
*   Small Signal Operation
*----------------------------------------------------------------------
.SUBCKT LQG15HS1N5B02 port1 port2
C1 port1 port2 4.38e-16
L2 port1 1 2.01e-9
R2 1 port2 2.48e-2
R3 port1 port2 4.21e+3
L4 port1 2 4.41e-8
R4 2 port2 144
L5 port1 3 2.05e-8
R5 3 port2 7.85
L6 port1 4 2.17e-8
R6 4 port2 3.09
L7 port1 5 1.76e-7
C7 5 6 7.36e-16
R7 6 port2 145
L8 port1 7 6.08e-10
C8 7 8 1.15e-13
R8 8 port2 4.30e-1
.ENDS LQG15HS1N5B02
*----------------------------------------------------------------------
*----------------------------------------------------------------------
* SPICE Model generated by Murata Manufacturing Co., Ltd.
* Copyright(C) Murata Manufacturing Co., Ltd.
* MURATA P/N : LQG15HS1N5C02
* Property : L = 1.5[nH]
*----------------------------------------------------------------------
* Applicable Conditions:
*   Frequency Range = 1MHz - 20GHz
*   Temperature = 25 degC
*   DC Bias Current = 0 A
*   Small Signal Operation
*----------------------------------------------------------------------
.SUBCKT LQG15HS1N5C02 port1 port2
C1 port1 port2 4.38e-16
L2 port1 1 2.01e-9
R2 1 port2 2.48e-2
R3 port1 port2 4.21e+3
L4 port1 2 4.41e-8
R4 2 port2 144
L5 port1 3 2.05e-8
R5 3 port2 7.85
L6 port1 4 2.17e-8
R6 4 port2 3.09
L7 port1 5 1.76e-7
C7 5 6 7.36e-16
R7 6 port2 145
L8 port1 7 6.08e-10
C8 7 8 1.15e-13
R8 8 port2 4.30e-1
.ENDS LQG15HS1N5C02
*----------------------------------------------------------------------
*----------------------------------------------------------------------
* SPICE Model generated by Murata Manufacturing Co., Ltd.
* Copyright(C) Murata Manufacturing Co., Ltd.
* MURATA P/N : LQG15HS1N5S02
* Property : L = 1.5[nH]
*----------------------------------------------------------------------
* Applicable Conditions:
*   Frequency Range = 1MHz - 20GHz
*   Temperature = 25 degC
*   DC Bias Current = 0 A
*   Small Signal Operation
*----------------------------------------------------------------------
.SUBCKT LQG15HS1N5S02 port1 port2
C1 port1 port2 4.38e-16
L2 port1 1 2.01e-9
R2 1 port2 2.48e-2
R3 port1 port2 4.21e+3
L4 port1 2 4.41e-8
R4 2 port2 144
L5 port1 3 2.05e-8
R5 3 port2 7.85
L6 port1 4 2.17e-8
R6 4 port2 3.09
L7 port1 5 1.76e-7
C7 5 6 7.36e-16
R7 6 port2 145
L8 port1 7 6.08e-10
C8 7 8 1.15e-13
R8 8 port2 4.30e-1
.ENDS LQG15HS1N5S02
*----------------------------------------------------------------------
*----------------------------------------------------------------------
* SPICE Model generated by Murata Manufacturing Co., Ltd.
* Copyright(C) Murata Manufacturing Co., Ltd.
* MURATA P/N : LQG15HS1N6B02
* Property : L = 1.6[nH]
*----------------------------------------------------------------------
* Applicable Conditions:
*   Frequency Range = 1MHz - 20GHz
*   Temperature = 25 degC
*   DC Bias Current = 0 A
*   Small Signal Operation
*----------------------------------------------------------------------
.SUBCKT LQG15HS1N6B02 port1 port2
C1 port1 port2 4.38e-16
L2 port1 1 2.09e-9
R2 1 port2 2.48e-2
R3 port1 port2 4.21e+3
L4 port1 2 4.62e-8
R4 2 port2 141
L5 port1 3 1.45e-8
R5 3 port2 4.73
L6 port1 4 7.37e-8
R6 4 port2 5.01
L7 port1 5 9.68e-8
C7 5 6 1.34e-15
R7 6 port2 79.4
L8 port1 7 6.87e-10
C8 7 8 1.36e-13
R8 8 port2 5.06e-1
.ENDS LQG15HS1N6B02
*----------------------------------------------------------------------
*----------------------------------------------------------------------
* SPICE Model generated by Murata Manufacturing Co., Ltd.
* Copyright(C) Murata Manufacturing Co., Ltd.
* MURATA P/N : LQG15HS1N6C02
* Property : L = 1.6[nH]
*----------------------------------------------------------------------
* Applicable Conditions:
*   Frequency Range = 1MHz - 20GHz
*   Temperature = 25 degC
*   DC Bias Current = 0 A
*   Small Signal Operation
*----------------------------------------------------------------------
.SUBCKT LQG15HS1N6C02 port1 port2
C1 port1 port2 4.38e-16
L2 port1 1 2.09e-9
R2 1 port2 2.48e-2
R3 port1 port2 4.21e+3
L4 port1 2 4.62e-8
R4 2 port2 141
L5 port1 3 1.45e-8
R5 3 port2 4.73
L6 port1 4 7.37e-8
R6 4 port2 5.01
L7 port1 5 9.68e-8
C7 5 6 1.34e-15
R7 6 port2 79.4
L8 port1 7 6.87e-10
C8 7 8 1.36e-13
R8 8 port2 5.06e-1
.ENDS LQG15HS1N6C02
*----------------------------------------------------------------------
*----------------------------------------------------------------------
* SPICE Model generated by Murata Manufacturing Co., Ltd.
* Copyright(C) Murata Manufacturing Co., Ltd.
* MURATA P/N : LQG15HS1N6S02
* Property : L = 1.6[nH]
*----------------------------------------------------------------------
* Applicable Conditions:
*   Frequency Range = 1MHz - 20GHz
*   Temperature = 25 degC
*   DC Bias Current = 0 A
*   Small Signal Operation
*----------------------------------------------------------------------
.SUBCKT LQG15HS1N6S02 port1 port2
C1 port1 port2 4.38e-16
L2 port1 1 2.09e-9
R2 1 port2 2.48e-2
R3 port1 port2 4.21e+3
L4 port1 2 4.62e-8
R4 2 port2 141
L5 port1 3 1.45e-8
R5 3 port2 4.73
L6 port1 4 7.37e-8
R6 4 port2 5.01
L7 port1 5 9.68e-8
C7 5 6 1.34e-15
R7 6 port2 79.4
L8 port1 7 6.87e-10
C8 7 8 1.36e-13
R8 8 port2 5.06e-1
.ENDS LQG15HS1N6S02
*----------------------------------------------------------------------
*----------------------------------------------------------------------
* SPICE Model generated by Murata Manufacturing Co., Ltd.
* Copyright(C) Murata Manufacturing Co., Ltd.
* MURATA P/N : LQG15HS1N8B02
* Property : L = 1.8[nH]
*----------------------------------------------------------------------
* Applicable Conditions:
*   Frequency Range = 1MHz - 20GHz
*   Temperature = 25 degC
*   DC Bias Current = 0 A
*   Small Signal Operation
*----------------------------------------------------------------------
.SUBCKT LQG15HS1N8B02 port1 port2
C1 port1 port2 4.38e-16
L2 port1 1 2.82e-9
R2 1 port2 5.30e-2
R3 port1 port2 5.18e+3
L4 port1 2 4.21e-8
R4 2 port2 129
L5 port1 3 1.13e-8
R5 3 port2 3.93
L6 port1 4 2.12e-8
R6 4 port2 1.45
L7 port1 5 3.52e-8
C7 5 6 3.70e-15
R7 6 port2 28.8
L8 port1 7 6.14e-10
C8 7 8 1.75e-13
R8 8 port2 6.22e-1
.ENDS LQG15HS1N8B02
*----------------------------------------------------------------------
*----------------------------------------------------------------------
* SPICE Model generated by Murata Manufacturing Co., Ltd.
* Copyright(C) Murata Manufacturing Co., Ltd.
* MURATA P/N : LQG15HS1N8C02
* Property : L = 1.8[nH]
*----------------------------------------------------------------------
* Applicable Conditions:
*   Frequency Range = 1MHz - 20GHz
*   Temperature = 25 degC
*   DC Bias Current = 0 A
*   Small Signal Operation
*----------------------------------------------------------------------
.SUBCKT LQG15HS1N8C02 port1 port2
C1 port1 port2 4.38e-16