*----------------------------------------------------------------------
* SPICE Model generated by Murata Manufacturing Co., Ltd.
* Copyright(C) Murata Manufacturing Co., Ltd.
* MURATA P/N : LQP03HQ0N6B02
* Property : L = 0.6[nH]
*----------------------------------------------------------------------
* Applicable Conditions:
*   Frequency Range = 1MHz - 20GHz
*   Temperature = 25 degC
*   DC Bias Current = 0 A
*   Small Signal Operation
*----------------------------------------------------------------------
.SUBCKT LQP03HQ0N6B02 port1 port2
C1 port1 port2 4.53e-14
L2 port1 1 3.24e-10
R2 1 port2 3.72e-3
R3 port1 port2 9.63e+3
L4 port1 2 3.79e-9
R4 2 port2 1.22e-2
L5 port1 3 9.21e-9
R5 3 port2 5.25
L6 port1 4 2.09e-7
R6 4 port2 436
.ENDS LQP03HQ0N6B02
*----------------------------------------------------------------------
*----------------------------------------------------------------------
* SPICE Model generated by Murata Manufacturing Co., Ltd.
* Copyright(C) Murata Manufacturing Co., Ltd.
* MURATA P/N : LQP03HQ0N6C02
* Property : L = 0.6[nH]
*----------------------------------------------------------------------
* Applicable Conditions:
*   Frequency Range = 1MHz - 20GHz
*   Temperature = 25 degC
*   DC Bias Current = 0 A
*   Small Signal Operation
*----------------------------------------------------------------------
.SUBCKT LQP03HQ0N6C02 port1 port2
C1 port1 port2 4.53e-14
L2 port1 1 3.24e-10
R2 1 port2 3.72e-3
R3 port1 port2 9.63e+3
L4 port1 2 3.79e-9
R4 2 port2 1.22e-2
L5 port1 3 9.21e-9
R5 3 port2 5.25
L6 port1 4 2.09e-7
R6 4 port2 436
.ENDS LQP03HQ0N6C02
*----------------------------------------------------------------------
*----------------------------------------------------------------------
* SPICE Model generated by Murata Manufacturing Co., Ltd.
* Copyright(C) Murata Manufacturing Co., Ltd.
* MURATA P/N : LQP03HQ0N6W02
* Property : L = 0.6[nH]
*----------------------------------------------------------------------
* Applicable Conditions:
*   Frequency Range = 1MHz - 20GHz
*   Temperature = 25 degC
*   DC Bias Current = 0 A
*   Small Signal Operation
*----------------------------------------------------------------------
.SUBCKT LQP03HQ0N6W02 port1 port2
C1 port1 port2 4.53e-14
L2 port1 1 3.24e-10
R2 1 port2 3.72e-3
R3 port1 port2 9.63e+3
L4 port1 2 3.79e-9
R4 2 port2 1.22e-2
L5 port1 3 9.21e-9
R5 3 port2 5.25
L6 port1 4 2.09e-7
R6 4 port2 436
.ENDS LQP03HQ0N6W02
*----------------------------------------------------------------------
*----------------------------------------------------------------------
* SPICE Model generated by Murata Manufacturing Co., Ltd.
* Copyright(C) Murata Manufacturing Co., Ltd.
* MURATA P/N : LQP03HQ0N7B02
* Property : L = 0.7[nH]
*----------------------------------------------------------------------
* Applicable Conditions:
*   Frequency Range = 1MHz - 20GHz
*   Temperature = 25 degC
*   DC Bias Current = 0 A
*   Small Signal Operation
*----------------------------------------------------------------------
.SUBCKT LQP03HQ0N7B02 port1 port2
C1 port1 port2 1.09e-14
L2 port1 1 5.25e-10
R2 1 port2 6.31e-3
R3 port1 port2 8.79e+3
L4 port1 2 2.88e-8
R4 2 port2 21.6
L5 port1 3 1.84e-9
R5 3 port2 1.66e-3
L6 port1 4 5.51e-8
R6 4 port2 174
.ENDS LQP03HQ0N7B02
*----------------------------------------------------------------------
*----------------------------------------------------------------------
* SPICE Model generated by Murata Manufacturing Co., Ltd.
* Copyright(C) Murata Manufacturing Co., Ltd.
* MURATA P/N : LQP03HQ0N7C02
* Property : L = 0.7[nH]
*----------------------------------------------------------------------
* Applicable Conditions:
*   Frequency Range = 1MHz - 20GHz
*   Temperature = 25 degC
*   DC Bias Current = 0 A
*   Small Signal Operation
*----------------------------------------------------------------------
.SUBCKT LQP03HQ0N7C02 port1 port2
C1 port1 port2 1.09e-14
L2 port1 1 5.25e-10
R2 1 port2 6.31e-3
R3 port1 port2 8.79e+3
L4 port1 2 2.88e-8
R4 2 port2 21.6
L5 port1 3 1.84e-9
R5 3 port2 1.66e-3
L6 port1 4 5.51e-8
R6 4 port2 174
.ENDS LQP03HQ0N7C02
*----------------------------------------------------------------------
*----------------------------------------------------------------------
* SPICE Model generated by Murata Manufacturing Co., Ltd.
* Copyright(C) Murata Manufacturing Co., Ltd.
* MURATA P/N : LQP03HQ0N7W02
* Property : L = 0.7[nH]
*----------------------------------------------------------------------
* Applicable Conditions:
*   Frequency Range = 1MHz - 20GHz
*   Temperature = 25 degC
*   DC Bias Current = 0 A
*   Small Signal Operation
*----------------------------------------------------------------------
.SUBCKT LQP03HQ0N7W02 port1 port2
C1 port1 port2 1.09e-14
L2 port1 1 5.25e-10
R2 1 port2 6.31e-3
R3 port1 port2 8.79e+3
L4 port1 2 2.88e-8
R4 2 port2 21.6
L5 port1 3 1.84e-9
R5 3 port2 1.66e-3
L6 port1 4 5.51e-8
R6 4 port2 174
.ENDS LQP03HQ0N7W02
*----------------------------------------------------------------------
*----------------------------------------------------------------------
* SPICE Model generated by Murata Manufacturing Co., Ltd.
* Copyright(C) Murata Manufacturing Co., Ltd.
* MURATA P/N : LQP03HQ0N8B02
* Property : L = 0.8[nH]
*----------------------------------------------------------------------
* Applicable Conditions:
*   Frequency Range = 1MHz - 20GHz
*   Temperature = 25 degC
*   DC Bias Current = 0 A
*   Small Signal Operation
*----------------------------------------------------------------------
.SUBCKT LQP03HQ0N8B02 port1 port2
C1 port1 port2 2.07e-14
L2 port1 1 5.37e-10
R2 1 port2 8.51e-3
R3 port1 port2 8.79e+3
L4 port1 2 9.30e-9
R4 2 port2 7.86
L5 port1 3 2.16e-6
R5 3 port2 2.82e+3
L6 port1 4 1.07e-8
R6 4 port2 6.45e-1
.ENDS LQP03HQ0N8B02
*----------------------------------------------------------------------
*----------------------------------------------------------------------
* SPICE Model generated by Murata Manufacturing Co., Ltd.
* Copyright(C) Murata Manufacturing Co., Ltd.
* MURATA P/N : LQP03HQ0N8C02
* Property : L = 0.8[nH]
*----------------------------------------------------------------------
* Applicable Conditions:
*   Frequency Range = 1MHz - 20GHz
*   Temperature = 25 degC
*   DC Bias Current = 0 A
*   Small Signal Operation
*----------------------------------------------------------------------
.SUBCKT LQP03HQ0N8C02 port1 port2
C1 port1 port2 2.07e-14
L2 port1 1 5.37e-10
R2 1 port2 8.51e-3
R3 port1 port2 8.79e+3
L4 port1 2 9.30e-9
R4 2 port2 7.86
L5 port1 3 2.16e-6
R5 3 port2 2.82e+3
L6 port1 4 1.07e-8
R6 4 port2 6.45e-1
.ENDS LQP03HQ0N8C02
*----------------------------------------------------------------------
*----------------------------------------------------------------------
* SPICE Model generated by Murata Manufacturing Co., Ltd.
* Copyright(C) Murata Manufacturing Co., Ltd.
* MURATA P/N : LQP03HQ0N8W02
* Property : L = 0.8[nH]
*----------------------------------------------------------------------
* Applicable Conditions:
*   Frequency Range = 1MHz - 20GHz
*   Temperature = 25 degC
*   DC Bias Current = 0 A
*   Small Signal Operation
*----------------------------------------------------------------------
.SUBCKT LQP03HQ0N8W02 port1 port2
C1 port1 port2 2.07e-14
L2 port1 1 5.37e-10
R2 1 port2 8.51e-3
R3 port1 port2 8.79e+3
L4 port1 2 9.30e-9
R4 2 port2 7.86
L5 port1 3 2.16e-6
R5 3 port2 2.82e+3
L6 port1 4 1.07e-8
R6 4 port2 6.45e-1
.ENDS LQP03HQ0N8W02
*----------------------------------------------------------------------
*----------------------------------------------------------------------
* SPICE Model generated by Murata Manufacturing Co., Ltd.
* Copyright(C) Murata Manufacturing Co., Ltd.
* MURATA P/N : LQP03HQ0N9B02
* Property : L = 0.9[nH]
*----------------------------------------------------------------------
* Applicable Conditions:
*   Frequency Range = 1MHz - 20GHz
*   Temperature = 25 degC
*   DC Bias Current = 0 A
*   Small Signal Operation
*----------------------------------------------------------------------
.SUBCKT LQP03HQ0N9B02 port1 port2
C1 port1 port2 2.38e-14
L2 port1 1 1.00e-9
R2 1 port2 3.24e-2
R3 port1 port2 5.94e+3
L4 port1 2 5.48e-8
R4 2 port2 212
L5 port1 3 5.06e-9
R5 3 port2 1.38
L6 port1 4 2.10e-9
R6 4 port2 8.48e-2
.ENDS LQP03HQ0N9B02
*----------------------------------------------------------------------
*----------------------------------------------------------------------
* SPICE Model generated by Murata Manufacturing Co., Ltd.
* Copyright(C) Murata Manufacturing Co., Ltd.
* MURATA P/N : LQP03HQ0N9C02
* Property : L = 0.9[nH]
*----------------------------------------------------------------------
* Applicable Conditions:
*   Frequency Range = 1MHz - 20GHz
*   Temperature = 25 degC
*   DC Bias Current = 0 A
*   Small Signal Operation
*----------------------------------------------------------------------
.SUBCKT LQP03HQ0N9C02 port1 port2
C1 port1 port2 2.38e-14
L2 port1 1 1.00e-9
R2 1 port2 3.24e-2
R3 port1 port2 5.94e+3
L4 port1 2 5.48e-8
R4 2 port2 212
L5 port1 3 5.06e-9
R5 3 port2 1.38
L6 port1 4 2.10e-9
R6 4 port2 8.48e-2
.ENDS LQP03HQ0N9C02
*----------------------------------------------------------------------
*----------------------------------------------------------------------
* SPICE Model generated by Murata Manufacturing Co., Ltd.
* Copyright(C) Murata Manufacturing Co., Ltd.
* MURATA P/N : LQP03HQ0N9W02
* Property : L = 0.9[nH]
*----------------------------------------------------------------------
* Applicable Conditions:
*   Frequency Range = 1MHz - 20GHz
*   Temperature = 25 degC
*   DC Bias Current = 0 A
*   Small Signal Operation
*----------------------------------------------------------------------
.SUBCKT LQP03HQ0N9W02 port1 port2
C1 port1 port2 2.38e-14
L2 port1 1 1.00e-9
R2 1 port2 3.24e-2
R3 port1 port2 5.94e+3
L4 port1 2 5.48e-8
R4 2 port2 212
L5 port1 3 5.06e-9
R5 3 port2 1.38
L6 port1 4 2.10e-9
R6 4 port2 8.48e-2
.ENDS LQP03HQ0N9W02
*----------------------------------------------------------------------
*----------------------------------------------------------------------
* SPICE Model generated by Murata Manufacturing Co., Ltd.
* Copyright(C) Murata Manufacturing Co., Ltd.
* MURATA P/N : LQP03HQ10NH02
* Property : L = 10[nH]
*----------------------------------------------------------------------
* Applicable Conditions:
*   Frequency Range = 1MHz - 20GHz
*   Temperature = 25 degC
*   DC Bias Current = 0 A
*   Small Signal Operation
*----------------------------------------------------------------------
.SUBCKT LQP03HQ10NH02 port1 port2
C1 port1 port2 7.40e-14
L2 port1 1 1.05e-8
R2 1 port2 2.70e-1
R3 port1 port2 2.00e+4
L4 port1 2 4.60e-7
R4 2 port2 2.00e+3
L5 port1 3 5.00e-7
R5 3 port2 800
L6 port1 4 1.60e-7
R6 4 port2 60.0
L7 port1 5 1.46e-8
C7 5 6 4.00e-15
R7 6 port2 60.0
.ENDS LQP03HQ10NH02
*----------------------------------------------------------------------
*----------------------------------------------------------------------
* SPICE Model generated by Murata Manufacturing Co., Ltd.
* Copyright(C) Murata Manufacturing Co., Ltd.
* MURATA P/N : LQP03HQ10NJ02
* Property : L = 10[nH]
*----------------------------------------------------------------------
* Applicable Conditions:
*   Frequency Range = 1MHz - 20GHz
*   Temperature = 25 degC
*   DC Bias Current = 0 A
*   Small Signal Operation
*----------------------------------------------------------------------
.SUBCKT LQP03HQ10NJ02 port1 port2
C1 port1 port2 7.40e-14
L2 port1 1 1.05e-8
R2 1 port2 2.70e-1
R3 port1 port2 2.00e+4
L4 port1 2 4.60e-7
R4 2 port2 2.00e+3
L5 port1 3 5.00e-7
R5 3 port2 800
L6 port1 4 1.60e-7
R6 4 port2 60.0
L7 port1 5 1.46e-8
C7 5 6 4.00e-15
R7 6 port2 60.0
.ENDS LQP03HQ10NJ02
*----------------------------------------------------------------------
*----------------------------------------------------------------------
* SPICE Model generated by Murata Manufacturing Co., Ltd.
* Copyright(C) Murata Manufacturing Co., Ltd.
* MURATA P/N : LQP03HQ11NH02
* Property : L = 11[nH]
*----------------------------------------------------------------------
* Applicable Conditions:
*   Frequency Range = 1MHz - 20GHz
*   Temperature = 25 degC
*   DC Bias Current = 0 A
*   Small Signal Operation
*----------------------------------------------------------------------
.SUBCKT LQP03HQ11NH02 port1 port2
C1 port1 port2 8.30e-14
L2 port1 1 1.16e-8
R2 1 port2 2.90e-1
R3 port1 port2 2.00e+4
L4 port1 2 5.00e-7
R4 2 port2 2.00e+3
L5 port1 3 5.00e-7
R5 3 port2 800
L6 port1 4 1.75e-7
R6 4 port2 60.0
L7 port1 5 1.46e-8
C7 5 6 3.70e-15
R7 6 port2 60.0
.ENDS LQP03HQ11NH02
*----------------------------------------------------------------------
*----------------------------------------------------------------------
* SPICE Model generated by Murata Manufacturing Co., Ltd.
* Copyright(C) Murata Manufacturing Co., Ltd.
* MURATA P/N : LQP03HQ11NJ02
* Property : L = 11[nH]
*----------------------------------------------------------------------
* Applicable Conditions:
*   Frequency Range = 1MHz - 20GHz
*   Temperature = 25 degC
*   DC Bias Current = 0 A
*   Small Signal Operation
*----------------------------------------------------------------------
.SUBCKT LQP03HQ11NJ02 port1 port2
C1 port1 port2 8.30e-14
L2 port1 1 1.16e-8
R2 1 port2 2.90e-1
R3 port1 port2 2.00e+4
L4 port1 2 5.00e-7
R4 2 port2 2.00e+3
L5 port1 3 5.00e-7
R5 3 port2 800
L6 port1 4 1.75e-7
R6 4 port2 60.0
L7 port1 5 1.46e-8
C7 5 6 3.70e-15
R7 6 port2 60.0
.ENDS LQP03HQ11NJ02
*----------------------------------------------------------------------
*----------------------------------------------------------------------
* SPICE Model generated by Murata Manufacturing Co., Ltd.
* Copyright(C) Murata Manufacturing Co., Ltd.
* MURATA P/N : LQP03HQ12NH02
* Property : L = 12[nH]
*----------------------------------------------------------------------
* Applicable Conditions:
*   Frequency Range = 1MHz - 20GHz
*   Temperature = 25 degC
*   DC Bias Current = 0 A
*   Small Signal Operation
*----------------------------------------------------------------------
.SUBCKT LQP03HQ12NH02 port1 port2
C1 port1 port2 7.30e-14
L2 port1 1 1.27e-8
R2 1 port2 2.70e-1
R3 port1 port2 2.00e+4
L4 port1 2 5.00e-7
R4 2 port2 2.00e+3
L5 port1 3 5.00e-7
R5 3 port2 800
L6 port1 4 1.80e-7
R6 4 port2 62.0
L7 port1 5 1.46e-8
C7 5 6 4.70e-15
R7 6 port2 60.0
.ENDS LQP03HQ12NH02
*----------------------------------------------------------------------
*----------------------------------------------------------------------
* SPICE Model generated by Murata Manufacturing Co., Ltd.
* Copyright(C) Murata Manufacturing Co., Ltd.
* MURATA P/N : LQP03HQ12NJ02
* Property : L = 12[nH]
*----------------------------------------------------------------------
* Applicable Conditions:
*   Frequency Range = 1MHz - 20GHz
*   Temperature = 25 degC
*   DC Bias Current = 0 A
*   Small Signal Operation
*----------------------------------------------------------------------
.SUBCKT LQP03HQ12NJ02 port1 port2
C1 port1 port2 7.30e-14
L2 port1 1 1.27e-8
R2 1 port2 2.70e-1
R3 port1 port2 2.00e+4
L4 port1 2 5.00e-7
R4 2 port2 2.00e+3
L5 port1 3 5.00e-7
R5 3 port2 800
L6 port1 4 1.80e-7
R6 4 port2 62.0
L7 port1 5 1.46e-8
C7 5 6 4.70e-15
R7 6 port2 60.0
.ENDS LQP03HQ12NJ02
*----------------------------------------------------------------------
*----------------------------------------------------------------------
* SPICE Model generated by Murata Manufacturing Co., Ltd.
* Copyright(C) Murata Manufacturing Co., Ltd.
* MURATA P/N : LQP03HQ13NH02
* Property : L = 13[nH]
*----------------------------------------------------------------------
* Applicable Conditions:
*   Frequency Range = 1MHz - 20GHz
*   Temperature = 25 degC
*   DC Bias Current = 0 A
*   Small Signal Operation
*----------------------------------------------------------------------
.SUBCKT LQP03HQ13NH02 port1 port2
C1 port1 port2 7.30e-14
L2 port1 1 1.38e-8
R2 1 port2 3.20e-1
R3 port1 port2 2.40e+4
L4 port1 2 5.00e-7
R4 2 port2 2.00e+3
L5 port1 3 5.00e-7
R5 3 port2 800
L6 port1 4 2.30e-7
R6 4 port2 62.0
L7 port1 5 1.46e-8
C7 5 6 5.30e-15
R7 6 port2 60.0
.ENDS LQP03HQ13NH02
*----------------------------------------------------------------------
*----------------------------------------------------------------------
* SPICE Model generated by Murata Manufacturing Co., Ltd.
* Copyright(C) Murata Manufacturing Co., Ltd.
* MURATA P/N : LQP03HQ13NJ02
* Property : L = 13[nH]
*----------------------------------------------------------------------
* Applicable Conditions:
*   Frequency Range = 1MHz - 20GHz
*   Temperature = 25 degC
*   DC Bias Current = 0 A
*   Small Signal Operation
*----------------------------------------------------------------------
.SUBCKT LQP03HQ13NJ02 port1 port2
C1 port1 port2 7.30e-14
L2 port1 1 1.38e-8
R2 1 port2 3.20e-1
R3 port1 port2 2.40e+4
L4 port1 2 5.00e-7
R4 2 port2 2.00e+3
L5 port1 3 5.00e-7
R5 3 port2 800
L6 port1 4 2.30e-7
R6 4 port2 62.0
L7 port1 5 1.46e-8
C7 5 6 5.30e-15
R7 6 port2 60.0
.ENDS LQP03HQ13NJ02
*----------------------------------------------------------------------
*----------------------------------------------------------------------
* SPICE Model generated by Murata Manufacturing Co., Ltd.
* Copyright(C) Murata Manufacturing Co., Ltd.
* MURATA P/N : LQP03HQ15NH02
* Property : L = 15[nH]
*----------------------------------------------------------------------
* Applicable Conditions:
*   Frequency Range = 1MHz - 20GHz
*   Temperature = 25 degC
*   DC Bias Current = 0 A
*   Small Signal Operation
*----------------------------------------------------------------------
.SUBCKT LQP03HQ15NH02 port1 port2
C1 port1 port2 7.80e-14
L2 port1 1 1.58e-8
R2 1 port2 4.50e-1
R3 port1 port2 2.35e+4
L4 port1 2 5.60e-7
R4 2 port2 2.00e+3
L5 port1 3 6.50e-7
R5 3 port2 900
L6 port1 4 3.00e-7
R6 4 port2 68.0
L7 port1 5 1.45e-8
C7 5 6 6.30e-15
R7 6 port2 60.0
.ENDS LQP03HQ15NH02
*----------------------------------------------------------------------
*----------------------------------------------------------------------
* SPICE Model generated by Murata Manufacturing Co., Ltd.
* Copyright(C) Murata Manufacturing Co., Ltd.
* MURATA P/N : LQP03HQ15NJ02
* Property : L = 15[nH]
*----------------------------------------------------------------------
* Applicable Conditions:
*   Frequency Range = 1MHz - 20GHz
*   Temperature = 25 degC
*   DC Bias Current = 0 A
*   Small Signal Operation
*----------------------------------------------------------------------
.SUBCKT LQP03HQ15NJ02 port1 port2
C1 port1 port2 7.80e-14
L2 port1 1 1.58e-8
R2 1 port2 4.50e-1
R3 port1 port2 2.35e+4
L4 port1 2 5.60e-7
R4 2 port2 2.00e+3
L5 port1 3 6.50e-7
R5 3 port2 900
L6 port1 4 3.00e-7
R6 4 port2 68.0
L7 port1 5 1.45e-8
C7 5 6 6.30e-15
R7 6 port2 60.0
.ENDS LQP03HQ15NJ02
*----------------------------------------------------------------------
*----------------------------------------------------------------------
* SPICE Model generated by Murata Manufacturing Co., Ltd.
* Copyright(C) Murata Manufacturing Co., Ltd.
* MURATA P/N : LQP03HQ16NH02
* Property : L = 16[nH]
*----------------------------------------------------------------------
* Applicable Conditions:
*   Frequency Range = 1MHz - 20GHz
*   Temperature = 25 degC
*   DC Bias Current = 0 A
*   Small Signal Operation
*----------------------------------------------------------------------
.SUBCKT LQP03HQ16NH02 port1 port2
C1 port1 port2 9.00e-14
L2 port1 1 1.69e-8
R2 1 port2 4.00e-1
R3 port1 port2 2.20e+4
L4 port1 2 6.00e-7
R4 2 port2 2.00e+3
L5 port1 3 6.50e-7
R5 3 port2 900
L6 port1 4 3.00e-7
R6 4 port2 68.0
L7 port1 5 1.45e-8
C7 5 6 5.35e-15
R7 6 port2 50.0
.ENDS LQP03HQ16NH02
*----------------------------------------------------------------------
*----------------------------------------------------------------------
* SPICE Model generated by Murata Manufacturing Co., Ltd.
* Copyright(C) Murata Manufacturing Co., Ltd.
* MURATA P/N : LQP03HQ16NJ02
* Property : L = 16[nH]
*----------------------------------------------------------------------
* Applicable Conditions:
*   Frequency Range = 1MHz - 20GHz
*   Temperature = 25 degC
*   DC Bias Current = 0 A
*   Small Signal Operation
*----------------------------------------------------------------------
.SUBCKT LQP03HQ16NJ02 port1 port2
C1 port1 port2 9.00e-14
L2 port1 1 1.69e-8
R2 1 port2 4.00e-1
R3 port1 port2 2.20e+4
L4 port1 2 6.00e-7
R4 2 port2 2.00e+3
L5 port1 3 6.50e-7
R5 3 port2 900
L6 port1 4 3.00e-7
R6 4 port2 68.0
L7 port1 5 1.45e-8
C7 5 6 5.35e-15
R7 6 port2 50.0
.ENDS LQP03HQ16NJ02
*----------------------------------------------------------------------
*----------------------------------------------------------------------
* SPICE Model generated by Murata Manufacturing Co., Ltd.
* Copyright(C) Murata Manufacturing Co., Ltd.
* MURATA P/N : LQP03HQ18NH02
* Property : L = 18[nH]
*----------------------------------------------------------------------
* Applicable Conditions:
*   Frequency Range = 1MHz - 20GHz
*   Temperature = 25 degC
*   DC Bias Current = 0 A
*   Small Signal Operation
*----------------------------------------------------------------------
.SUBCKT LQP03HQ18NH02 port1 port2
C1 port1 port2 6.50e-14
L2 port1 1 1.92e-8
R2 1 port2 4.80e-1
R3 port1 port2 2.75e+4
L4 port1 2 8.00e-7
R4 2 port2 3.00e+3
L5 port1 3 6.50e-7
R5 3 port2 1.30e+3
L6 port1 4 3.00e-7
R6 4 port2 70.0
L7 port1 5 1.45e-8
C7 5 6 6.00e-15
R7 6 port2 80.0
.ENDS LQP03HQ18NH02
*----------------------------------------------------------------------
*----------------------------------------------------------------------
* SPICE Model generated by Murata Manufacturing Co., Ltd.
* Copyright(C) Murata Manufacturing Co., Ltd.
* MURATA P/N : LQP03HQ18NJ02
* Property : L = 18[nH]
*----------------------------------------------------------------------
* Applicable Conditions:
*   Frequency Range = 1MHz - 20GHz
*   Temperature = 25 degC
*   DC Bias Current = 0 A
*   Small Signal Operation
*----------------------------------------------------------------------
.SUBCKT LQP03HQ18NJ02 port1 port2
C1 port1 port2 6.50e-14
L2 port1 1 1.92e-8
R2 1 port2 4.80e-1
R3 port1 port2 2.75e+4
L4 port1 2 8.00e-7
R4 2 port2 3.00e+3
L5 port1 3 6.50e-7
R5 3 port2 1.30e+3
L6 port1 4 3.00e-7
R6 4 port2 70.0
L7 port1 5 1.45e-8
C7 5 6 6.00e-15
R7 6 port2 80.0
.ENDS LQP03HQ18NJ02
*----------------------------------------------------------------------
*----------------------------------------------------------------------
* SPICE Model generated by Murata Manufacturing Co., Ltd.
* Copyright(C) Murata Manufacturing Co., Ltd.
* MURATA P/N : LQP03HQ1N0B02
* Property : L = 1[nH]
*----------------------------------------------------------------------
* Applicable Conditions:
*   Frequency Range = 1MHz - 20GHz
*   Temperature = 25 degC
*   DC Bias Current = 0 A
*   Small Signal Operation
*----------------------------------------------------------------------
.SUBCKT LQP03HQ1N0B02 port1 port2
C1 port1 port2 7.18e-14
L2 port1 1 8.32e-10
R2 1 port2 7.42e-3
R3 port1 port2 6.22e+3
L4 port1 2 4.35e-8
R4 2 port2 237
L5 port1 3 4.02e-9
R5 3 port2 7.76e-1
L6 port1 4 9.14e-5
R6 4 port2 10.2
.ENDS LQP03HQ1N0B02
*----------------------------------------------------------------------
*----------------------------------------------------------------------
* SPICE Model generated by Murata Manufacturing Co., Ltd.
* Copyright(C) Murata Manufacturing Co., Ltd.
* MURATA P/N : LQP03HQ1N0C02
* Property : L = 1[nH]
*----------------------------------------------------------------------
* Applicable Conditions:
*   Frequency Range = 1MHz - 20GHz
*   Temperature = 25 degC
*   DC Bias Current = 0 A
*   Small Signal Operation
*----------------------------------------------------------------------
.SUBCKT LQP03HQ1N0C02 port1 port2
C1 port1 port2 7.18e-14
L2 port1 1 8.32e-10
R2 1 port2 7.42e-3
R3 port1 port2 6.22e+3
L4 port1 2 4.35e-8
R4 2 port2 237
L5 port1 3 4.02e-9
R5 3 port2 7.76e-1
L6 port1 4 9.14e-5
R6 4 port2 10.2
.ENDS LQP03HQ1N0C02
*----------------------------------------------------------------------
*----------------------------------------------------------------------
* SPICE Model generated by Murata Manufacturing Co., Ltd.
* Copyright(C) Murata Manufacturing Co., Ltd.
* MURATA P/N : LQP03HQ1N0W02
* Property : L = 1[nH]
*----------------------------------------------------------------------
* Applicable Conditions:
*   Frequency Range = 1MHz - 20GHz
*   Temperature = 25 degC
*   DC Bias Current = 0 A
*   Small Signal Operation
*----------------------------------------------------------------------
.SUBCKT LQP03HQ1N0W02 port1 port2
C1 port1 port2 7.18e-14
L2 port1 1 8.32e-10
R2 1 port2 7.42e-3
R3 port1 port2 6.22e+3
L4 port1 2 4.35e-8
R4 2 port2 237
L5 port1 3 4.02e-9
R5 3 port2 7.76e-1
L6 port1 4 9.14e-5
R6 4 port2 10.2
.ENDS LQP03HQ1N0W02
*----------------------------------------------------------------------
*----------------------------------------------------------------------
* SPICE Model generated by Murata Manufacturing Co., Ltd.
* Copyright(C) Murata Manufacturing Co., Ltd.
* MURATA P/N : LQP03HQ1N1B02
* Property : L = 1.1[nH]
*----------------------------------------------------------------------
* Applicable Conditions:
*   Frequency Range = 1MHz - 20GHz
*   Temperature = 25 degC
*   DC Bias Current = 0 A
*   Small Signal Operation
*----------------------------------------------------------------------
.SUBCKT LQP03HQ1N1B02 port1 port2
C1 port1 port2 7.02e-14
L2 port1 1 9.34e-10
R2 1 port2 2.29e-2
R3 port1 port2 6.98e+3
L4 port1 2 6.59e-8
R4 2 port2 313
L5 port1 3 1.08e-8
R5 3 port2 1.86e-2
L6 port1 4 1.63e-8
R6 4 port2 5.49
.ENDS LQP03HQ1N1B02
*----------------------------------------------------------------------
*----------------------------------------------------------------------
* SPICE Model generated by Murata Manufacturing Co., Ltd.
* Copyright(C) Murata Manufacturing Co., Ltd.
* MURATA P/N : LQP03HQ1N1C02
* Property : L = 1.1[nH]
*----------------------------------------------------------------------
* Applicable Conditions:
*   Frequency Range = 1MHz - 20GHz
*   Temperature = 25 degC
*   DC Bias Current = 0 A
*   Small Signal Operation
*----------------------------------------------------------------------
.SUBCKT LQP03HQ1N1C02 port1 port2
C1 port1 port2 7.02e-14
L2 port1 1 9.34e-10
R2 1 port2 2.29e-2
R3 port1 port2 6.98e+3
L4 port1 2 6.59e-8
R4 2 port2 313
L5 port1 3 1.08e-8
R5 3 port2 1.86e-2
L6 port1 4 1.63e-8
R6 4 port2 5.49
.ENDS LQP03HQ1N1C02
*----------------------------------------------------------------------
*----------------------------------------------------------------------
* SPICE Model generated by Murata Manufacturing Co., Ltd.
* Copyright(C) Murata Manufacturing Co., Ltd.
* MURATA P/N : LQP03HQ1N1W02
* Property : L = 1.1[nH]
*----------------------------------------------------------------------
* Applicable Conditions:
*   Frequency Range = 1MHz - 20GHz
*   Temperature = 25 degC
*   DC Bias Current = 0 A
*   Small Signal Operation
*----------------------------------------------------------------------
.SUBCKT LQP03HQ1N1W02 port1 port2
C1 port1 port2 7.02e-14
L2 port1 1 9.34e-10
R2 1 port2 2.29e-2
R3 port1 port2 6.98e+3
L4 port1 2 6.59e-8
R4 2 port2 313
L5 port1 3 1.08e-8
R5 3 port2 1.86e-2
L6 port1 4 1.63e-8
R6 4 port2 5.49
.ENDS LQP03HQ1N1W02
*----------------------------------------------------------------------
*----------------------------------------------------------------------
* SPICE Model generated by Murata Manufacturing Co., Ltd.
* Copyright(C) Murata Manufacturing Co., Ltd.
* MURATA P/N : LQP03HQ1N2B02
* Property : L = 1.2[nH]
*----------------------------------------------------------------------
* Applicable Conditions:
*   Frequency Range = 1MHz - 20GHz
*   Temperature = 25 degC
*   DC Bias Current = 0 A
*   Small Signal Operation
*----------------------------------------------------------------------
.SUBCKT LQP03HQ1N2B02 port1 port2
C1 port1 port2 8.44e-14
L2 port1 1 9.34e-10
R2 1 port2 1.82e-2
R3 port1 port2 6.98e+3
L4 port1 2 5.74e-8
R4 2 port2 227
L5 port1 3 6.08e-9
R5 3 port2 1.70
L6 port1 4 9.14e-5
R6 4 port2 10.2
.ENDS LQP03HQ1N2B02
*----------------------------------------------------------------------
*----------------------------------------------------------------------
* SPICE Model generated by Murata Manufacturing Co., Ltd.
* Copyright(C) Murata Manufacturing Co., Ltd.
* MURATA P/N : LQP03HQ1N2C02
* Property : L = 1.2[nH]
*----------------------------------------------------------------------
* Applicable Conditions:
*   Frequency Range = 1MHz - 20GHz
*   Temperature = 25 degC
*   DC Bias Current = 0 A
*   Small Signal Operation
*----------------------------------------------------------------------
.SUBCKT LQP03HQ1N2C02 port1 port2
C1 port1 port2 8.44e-14
L2 port1 1 9.34e-10
R2 1 port2 1.82e-2
R3 port1 port2 6.98e+3
L4 port1 2 5.74e-8
R4 2 port2 227
L5 port1 3 6.08e-9
R5 3 port2 1.70
L6 port1 4 9.14e-5
R6 4 port2 10.2
.ENDS LQP03HQ1N2C02
*----------------------------------------------------------------------
*----------------------------------------------------------------------
* SPICE Model generated by Murata Manufacturing Co., Ltd.
* Copyright(C) Murata Manufacturing Co., Ltd.
* MURATA P/N : LQP03HQ1N2W02
* Property : L = 1.2[nH]
*----------------------------------------------------------------------
* Applicable Conditions:
*   Frequency Range = 1MHz - 20GHz
*   Temperature = 25 degC
*   DC Bias Current = 0 A
*   Small Signal Operation
*----------------------------------------------------------------------
.SUBCKT LQP03HQ1N2W02 port1 port2
C1 port1 port2 8.44e-14
L2 port1 1 9.34e-10
R2 1 port2 1.82e-2
R3 port1 port2 6.98e+3
L4 port1 2 5.74e-8
R4 2 port2 227
L5 port1 3 6.08e-9
R5 3 port2 1.70
L6 port1 4 9.14e-5
R6 4 port2 10.2
.ENDS LQP03HQ1N2W02
*----------------------------------------------------------------------
*----------------------------------------------------------------------
* SPICE Model generated by Murata Manufacturing Co., Ltd.
* Copyright(C) Murata Manufacturing Co., Ltd.