*----------------------------------------------------------------------
* SPICE Model generated by Murata Manufacturing Co., Ltd.
* Copyright(C) Murata Manufacturing Co., Ltd.
* MURATA P/N : LQP03TN0N6B02
* Property : L = 0.6[nH]
*----------------------------------------------------------------------
* Applicable Conditions:
*   Frequency Range = 1MHz - 20GHz
*   Temperature = 25 degC
*   DC Bias Current = 0 A
*   Small Signal Operation
*----------------------------------------------------------------------
.SUBCKT LQP03TN0N6B02 port1 port2
C1 port1 port2 1.00e-15
L2 port1 1 2.70e-10
R2 1 port2 8.00e-3
R3 port1 port2 1.00e+3
L4 port1 2 1.80e-8
R4 2 port2 75.0
L5 port1 3 2.00e-7
R5 3 port2 2.00e+3
L6 port1 4 4.40e-8
R6 4 port2 35.0
L7 port1 5 5.00e-9
C7 5 6 7.60e-15
R7 6 port2 1.00e-1
.ENDS LQP03TN0N6B02
*----------------------------------------------------------------------
*----------------------------------------------------------------------
* SPICE Model generated by Murata Manufacturing Co., Ltd.
* Copyright(C) Murata Manufacturing Co., Ltd.
* MURATA P/N : LQP03TN0N6C02
* Property : L = 0.6[nH]
*----------------------------------------------------------------------
* Applicable Conditions:
*   Frequency Range = 1MHz - 20GHz
*   Temperature = 25 degC
*   DC Bias Current = 0 A
*   Small Signal Operation
*----------------------------------------------------------------------
.SUBCKT LQP03TN0N6C02 port1 port2
C1 port1 port2 1.00e-15
L2 port1 1 2.70e-10
R2 1 port2 8.00e-3
R3 port1 port2 1.00e+3
L4 port1 2 1.80e-8
R4 2 port2 75.0
L5 port1 3 2.00e-7
R5 3 port2 2.00e+3
L6 port1 4 4.40e-8
R6 4 port2 35.0
L7 port1 5 5.00e-9
C7 5 6 7.60e-15
R7 6 port2 1.00e-1
.ENDS LQP03TN0N6C02
*----------------------------------------------------------------------
*----------------------------------------------------------------------
* SPICE Model generated by Murata Manufacturing Co., Ltd.
* Copyright(C) Murata Manufacturing Co., Ltd.
* MURATA P/N : LQP03TN0N7B02
* Property : L = 0.7[nH]
*----------------------------------------------------------------------
* Applicable Conditions:
*   Frequency Range = 1MHz - 20GHz
*   Temperature = 25 degC
*   DC Bias Current = 0 A
*   Small Signal Operation
*----------------------------------------------------------------------
.SUBCKT LQP03TN0N7B02 port1 port2
C1 port1 port2 1.00e-15
L2 port1 1 3.70e-10
R2 1 port2 1.10e-2
R3 port1 port2 1.00e+3
L4 port1 2 1.40e-8
R4 2 port2 75.0
L5 port1 3 2.00e-7
R5 3 port2 2.00e+3
L6 port1 4 4.40e-8
R6 4 port2 35.0
L7 port1 5 5.00e-9
C7 5 6 7.60e-15
R7 6 port2 1.00e-1
.ENDS LQP03TN0N7B02
*----------------------------------------------------------------------
*----------------------------------------------------------------------
* SPICE Model generated by Murata Manufacturing Co., Ltd.
* Copyright(C) Murata Manufacturing Co., Ltd.
* MURATA P/N : LQP03TN0N7C02
* Property : L = 0.7[nH]
*----------------------------------------------------------------------
* Applicable Conditions:
*   Frequency Range = 1MHz - 20GHz
*   Temperature = 25 degC
*   DC Bias Current = 0 A
*   Small Signal Operation
*----------------------------------------------------------------------
.SUBCKT LQP03TN0N7C02 port1 port2
C1 port1 port2 1.00e-15
L2 port1 1 3.70e-10
R2 1 port2 1.10e-2
R3 port1 port2 1.00e+3
L4 port1 2 1.40e-8
R4 2 port2 75.0
L5 port1 3 2.00e-7
R5 3 port2 2.00e+3
L6 port1 4 4.40e-8
R6 4 port2 35.0
L7 port1 5 5.00e-9
C7 5 6 7.60e-15
R7 6 port2 1.00e-1
.ENDS LQP03TN0N7C02
*----------------------------------------------------------------------
*----------------------------------------------------------------------
* SPICE Model generated by Murata Manufacturing Co., Ltd.
* Copyright(C) Murata Manufacturing Co., Ltd.
* MURATA P/N : LQP03TN0N8B02
* Property : L = 0.8[nH]
*----------------------------------------------------------------------
* Applicable Conditions:
*   Frequency Range = 1MHz - 20GHz
*   Temperature = 25 degC
*   DC Bias Current = 0 A
*   Small Signal Operation
*----------------------------------------------------------------------
.SUBCKT LQP03TN0N8B02 port1 port2
C1 port1 port2 1.00e-15
L2 port1 1 4.80e-10
R2 1 port2 2.10e-2
R3 port1 port2 1.10e+3
L4 port1 2 1.60e-8
R4 2 port2 75.0
L5 port1 3 2.00e-7
R5 3 port2 2.00e+3
L6 port1 4 4.40e-8
R6 4 port2 35.0
L7 port1 5 5.00e-9
C7 5 6 7.60e-15
R7 6 port2 1.00e-1
.ENDS LQP03TN0N8B02
*----------------------------------------------------------------------
*----------------------------------------------------------------------
* SPICE Model generated by Murata Manufacturing Co., Ltd.
* Copyright(C) Murata Manufacturing Co., Ltd.
* MURATA P/N : LQP03TN0N8C02
* Property : L = 0.8[nH]
*----------------------------------------------------------------------
* Applicable Conditions:
*   Frequency Range = 1MHz - 20GHz
*   Temperature = 25 degC
*   DC Bias Current = 0 A
*   Small Signal Operation
*----------------------------------------------------------------------
.SUBCKT LQP03TN0N8C02 port1 port2
C1 port1 port2 1.00e-15
L2 port1 1 4.80e-10
R2 1 port2 2.10e-2
R3 port1 port2 1.10e+3
L4 port1 2 1.60e-8
R4 2 port2 75.0
L5 port1 3 2.00e-7
R5 3 port2 2.00e+3
L6 port1 4 4.40e-8
R6 4 port2 35.0
L7 port1 5 5.00e-9
C7 5 6 7.60e-15
R7 6 port2 1.00e-1
.ENDS LQP03TN0N8C02
*----------------------------------------------------------------------
*----------------------------------------------------------------------
* SPICE Model generated by Murata Manufacturing Co., Ltd.
* Copyright(C) Murata Manufacturing Co., Ltd.
* MURATA P/N : LQP03TN0N9B02
* Property : L = 0.9[nH]
*----------------------------------------------------------------------
* Applicable Conditions:
*   Frequency Range = 1MHz - 20GHz
*   Temperature = 25 degC
*   DC Bias Current = 0 A
*   Small Signal Operation
*----------------------------------------------------------------------
.SUBCKT LQP03TN0N9B02 port1 port2
C1 port1 port2 1.00e-15
L2 port1 1 5.90e-10
R2 1 port2 5.30e-2
R3 port1 port2 1.20e+3
L4 port1 2 1.40e-8
R4 2 port2 75.0
L5 port1 3 2.00e-7
R5 3 port2 2.00e+3
L6 port1 4 4.40e-8
R6 4 port2 35.0
L7 port1 5 5.00e-9
C7 5 6 7.60e-15
R7 6 port2 1.00e-1
.ENDS LQP03TN0N9B02
*----------------------------------------------------------------------
*----------------------------------------------------------------------
* SPICE Model generated by Murata Manufacturing Co., Ltd.
* Copyright(C) Murata Manufacturing Co., Ltd.
* MURATA P/N : LQP03TN0N9C02
* Property : L = 0.9[nH]
*----------------------------------------------------------------------
* Applicable Conditions:
*   Frequency Range = 1MHz - 20GHz
*   Temperature = 25 degC
*   DC Bias Current = 0 A
*   Small Signal Operation
*----------------------------------------------------------------------
.SUBCKT LQP03TN0N9C02 port1 port2
C1 port1 port2 1.00e-15
L2 port1 1 5.90e-10
R2 1 port2 5.30e-2
R3 port1 port2 1.20e+3
L4 port1 2 1.40e-8
R4 2 port2 75.0
L5 port1 3 2.00e-7
R5 3 port2 2.00e+3
L6 port1 4 4.40e-8
R6 4 port2 35.0
L7 port1 5 5.00e-9
C7 5 6 7.60e-15
R7 6 port2 1.00e-1
.ENDS LQP03TN0N9C02
*----------------------------------------------------------------------
*----------------------------------------------------------------------
* SPICE Model generated by Murata Manufacturing Co., Ltd.
* Copyright(C) Murata Manufacturing Co., Ltd.
* MURATA P/N : LQP03TN10NH02
* Property : L = 10[nH]
*----------------------------------------------------------------------
* Applicable Conditions:
*   Frequency Range = 1MHz - 20GHz
*   Temperature = 25 degC
*   DC Bias Current = 0 A
*   Small Signal Operation
*----------------------------------------------------------------------
.SUBCKT LQP03TN10NH02 port1 port2
C1 port1 port2 7.10e-14
L2 port1 1 1.03e-8
R2 1 port2 4.60e-1
R3 port1 port2 8.00e+3
L4 port1 2 2.30e-7
R4 2 port2 750
L5 port1 3 8.00e-7
R5 3 port2 500
L6 port1 4 2.35e-7
R6 4 port2 190
L7 port1 5 8.10e-9
C7 5 6 8.00e-15
R7 6 port2 50.0
.ENDS LQP03TN10NH02
*----------------------------------------------------------------------
*----------------------------------------------------------------------
* SPICE Model generated by Murata Manufacturing Co., Ltd.
* Copyright(C) Murata Manufacturing Co., Ltd.
* MURATA P/N : LQP03TN10NJ02
* Property : L = 10[nH]
*----------------------------------------------------------------------
* Applicable Conditions:
*   Frequency Range = 1MHz - 20GHz
*   Temperature = 25 degC
*   DC Bias Current = 0 A
*   Small Signal Operation
*----------------------------------------------------------------------
.SUBCKT LQP03TN10NJ02 port1 port2
C1 port1 port2 7.10e-14
L2 port1 1 1.03e-8
R2 1 port2 4.60e-1
R3 port1 port2 8.00e+3
L4 port1 2 2.30e-7
R4 2 port2 750
L5 port1 3 8.00e-7
R5 3 port2 500
L6 port1 4 2.35e-7
R6 4 port2 190
L7 port1 5 8.10e-9
C7 5 6 8.00e-15
R7 6 port2 50.0
.ENDS LQP03TN10NJ02
*----------------------------------------------------------------------
*----------------------------------------------------------------------
* SPICE Model generated by Murata Manufacturing Co., Ltd.
* Copyright(C) Murata Manufacturing Co., Ltd.
* MURATA P/N : LQP03TN11NH02
* Property : L = 11[nH]
*----------------------------------------------------------------------
* Applicable Conditions:
*   Frequency Range = 1MHz - 20GHz
*   Temperature = 25 degC
*   DC Bias Current = 0 A
*   Small Signal Operation
*----------------------------------------------------------------------
.SUBCKT LQP03TN11NH02 port1 port2
C1 port1 port2 7.10e-14
L2 port1 1 1.15e-8
R2 1 port2 4.90e-1
R3 port1 port2 8.50e+3
L4 port1 2 2.50e-7
R4 2 port2 750
L5 port1 3 8.00e-7
R5 3 port2 500
L6 port1 4 2.35e-7
R6 4 port2 190
L7 port1 5 8.00e-9
C7 5 6 8.00e-15
R7 6 port2 50.0
.ENDS LQP03TN11NH02
*----------------------------------------------------------------------
*----------------------------------------------------------------------
* SPICE Model generated by Murata Manufacturing Co., Ltd.
* Copyright(C) Murata Manufacturing Co., Ltd.
* MURATA P/N : LQP03TN11NJ02
* Property : L = 11[nH]
*----------------------------------------------------------------------
* Applicable Conditions:
*   Frequency Range = 1MHz - 20GHz
*   Temperature = 25 degC
*   DC Bias Current = 0 A
*   Small Signal Operation
*----------------------------------------------------------------------
.SUBCKT LQP03TN11NJ02 port1 port2
C1 port1 port2 7.10e-14
L2 port1 1 1.15e-8
R2 1 port2 4.90e-1
R3 port1 port2 8.50e+3
L4 port1 2 2.50e-7
R4 2 port2 750
L5 port1 3 8.00e-7
R5 3 port2 500
L6 port1 4 2.35e-7
R6 4 port2 190
L7 port1 5 8.00e-9
C7 5 6 8.00e-15
R7 6 port2 50.0
.ENDS LQP03TN11NJ02
*----------------------------------------------------------------------
*----------------------------------------------------------------------
* SPICE Model generated by Murata Manufacturing Co., Ltd.
* Copyright(C) Murata Manufacturing Co., Ltd.
* MURATA P/N : LQP03TN12NH02
* Property : L = 12[nH]
*----------------------------------------------------------------------
* Applicable Conditions:
*   Frequency Range = 1MHz - 20GHz
*   Temperature = 25 degC
*   DC Bias Current = 0 A
*   Small Signal Operation
*----------------------------------------------------------------------
.SUBCKT LQP03TN12NH02 port1 port2
C1 port1 port2 1.12e-13
L2 port1 1 1.26e-8
R2 1 port2 4.10e-1
R3 port1 port2 8.50e+3
L4 port1 2 2.60e-7
R4 2 port2 750
L5 port1 3 8.00e-7
R5 3 port2 500
L6 port1 4 2.35e-7
R6 4 port2 200
L7 port1 5 8.10e-9
C7 5 6 8.70e-15
R7 6 port2 50.0
.ENDS LQP03TN12NH02
*----------------------------------------------------------------------
*----------------------------------------------------------------------
* SPICE Model generated by Murata Manufacturing Co., Ltd.
* Copyright(C) Murata Manufacturing Co., Ltd.
* MURATA P/N : LQP03TN12NJ02
* Property : L = 12[nH]
*----------------------------------------------------------------------
* Applicable Conditions:
*   Frequency Range = 1MHz - 20GHz
*   Temperature = 25 degC
*   DC Bias Current = 0 A
*   Small Signal Operation
*----------------------------------------------------------------------
.SUBCKT LQP03TN12NJ02 port1 port2
C1 port1 port2 1.12e-13
L2 port1 1 1.26e-8
R2 1 port2 4.10e-1
R3 port1 port2 8.50e+3
L4 port1 2 2.60e-7
R4 2 port2 750
L5 port1 3 8.00e-7
R5 3 port2 500
L6 port1 4 2.35e-7
R6 4 port2 200
L7 port1 5 8.10e-9
C7 5 6 8.70e-15
R7 6 port2 50.0
.ENDS LQP03TN12NJ02
*----------------------------------------------------------------------
*----------------------------------------------------------------------
* SPICE Model generated by Murata Manufacturing Co., Ltd.
* Copyright(C) Murata Manufacturing Co., Ltd.
* MURATA P/N : LQP03TN13NH02
* Property : L = 13[nH]
*----------------------------------------------------------------------
* Applicable Conditions:
*   Frequency Range = 1MHz - 20GHz
*   Temperature = 25 degC
*   DC Bias Current = 0 A
*   Small Signal Operation
*----------------------------------------------------------------------
.SUBCKT LQP03TN13NH02 port1 port2
C1 port1 port2 9.75e-14
L2 port1 1 1.36e-8
R2 1 port2 5.35e-1
R3 port1 port2 9.00e+3
L4 port1 2 2.80e-7
R4 2 port2 750
L5 port1 3 8.00e-7
R5 3 port2 500
L6 port1 4 2.90e-7
R6 4 port2 220
L7 port1 5 8.20e-9
C7 5 6 9.00e-15
R7 6 port2 40.0
.ENDS LQP03TN13NH02
*----------------------------------------------------------------------
*----------------------------------------------------------------------
* SPICE Model generated by Murata Manufacturing Co., Ltd.
* Copyright(C) Murata Manufacturing Co., Ltd.
* MURATA P/N : LQP03TN13NJ02
* Property : L = 13[nH]
*----------------------------------------------------------------------
* Applicable Conditions:
*   Frequency Range = 1MHz - 20GHz
*   Temperature = 25 degC
*   DC Bias Current = 0 A
*   Small Signal Operation
*----------------------------------------------------------------------
.SUBCKT LQP03TN13NJ02 port1 port2
C1 port1 port2 9.75e-14
L2 port1 1 1.36e-8
R2 1 port2 5.35e-1
R3 port1 port2 9.00e+3
L4 port1 2 2.80e-7
R4 2 port2 750
L5 port1 3 8.00e-7
R5 3 port2 500
L6 port1 4 2.90e-7
R6 4 port2 220
L7 port1 5 8.20e-9
C7 5 6 9.00e-15
R7 6 port2 40.0
.ENDS LQP03TN13NJ02
*----------------------------------------------------------------------
*----------------------------------------------------------------------
* SPICE Model generated by Murata Manufacturing Co., Ltd.
* Copyright(C) Murata Manufacturing Co., Ltd.
* MURATA P/N : LQP03TN15NH02
* Property : L = 15[nH]
*----------------------------------------------------------------------
* Applicable Conditions:
*   Frequency Range = 1MHz - 20GHz
*   Temperature = 25 degC
*   DC Bias Current = 0 A
*   Small Signal Operation
*----------------------------------------------------------------------
.SUBCKT LQP03TN15NH02 port1 port2
C1 port1 port2 1.12e-13
L2 port1 1 1.62e-8
R2 1 port2 4.70e-1
R3 port1 port2 1.10e+4
L4 port1 2 2.60e-7
R4 2 port2 750
L5 port1 3 8.00e-7
R5 3 port2 500
L6 port1 4 2.35e-7
R6 4 port2 79.0
L7 port1 5 8.10e-9
C7 5 6 1.21e-14
R7 6 port2 50.0
.ENDS LQP03TN15NH02
*----------------------------------------------------------------------
*----------------------------------------------------------------------
* SPICE Model generated by Murata Manufacturing Co., Ltd.
* Copyright(C) Murata Manufacturing Co., Ltd.
* MURATA P/N : LQP03TN15NJ02
* Property : L = 15[nH]
*----------------------------------------------------------------------
* Applicable Conditions:
*   Frequency Range = 1MHz - 20GHz
*   Temperature = 25 degC
*   DC Bias Current = 0 A
*   Small Signal Operation
*----------------------------------------------------------------------
.SUBCKT LQP03TN15NJ02 port1 port2
C1 port1 port2 1.12e-13
L2 port1 1 1.62e-8
R2 1 port2 4.70e-1
R3 port1 port2 1.10e+4
L4 port1 2 2.60e-7
R4 2 port2 750
L5 port1 3 8.00e-7
R5 3 port2 500
L6 port1 4 2.35e-7
R6 4 port2 79.0
L7 port1 5 8.10e-9
C7 5 6 1.21e-14
R7 6 port2 50.0
.ENDS LQP03TN15NJ02
*----------------------------------------------------------------------
*----------------------------------------------------------------------
* SPICE Model generated by Murata Manufacturing Co., Ltd.
* Copyright(C) Murata Manufacturing Co., Ltd.
* MURATA P/N : LQP03TN16NH02
* Property : L = 16[nH]
*----------------------------------------------------------------------
* Applicable Conditions:
*   Frequency Range = 1MHz - 20GHz
*   Temperature = 25 degC
*   DC Bias Current = 0 A
*   Small Signal Operation
*----------------------------------------------------------------------
.SUBCKT LQP03TN16NH02 port1 port2
C1 port1 port2 1.05e-13
L2 port1 1 1.73e-8
R2 1 port2 6.00e-1
R3 port1 port2 1.20e+4
L4 port1 2 2.70e-7
R4 2 port2 750
L5 port1 3 8.00e-7
R5 3 port2 500
L6 port1 4 2.70e-7
R6 4 port2 60.0
L7 port1 5 8.00e-9
C7 5 6 1.15e-14
R7 6 port2 40.0
.ENDS LQP03TN16NH02
*----------------------------------------------------------------------
*----------------------------------------------------------------------
* SPICE Model generated by Murata Manufacturing Co., Ltd.
* Copyright(C) Murata Manufacturing Co., Ltd.
* MURATA P/N : LQP03TN16NJ02
* Property : L = 16[nH]
*----------------------------------------------------------------------
* Applicable Conditions:
*   Frequency Range = 1MHz - 20GHz
*   Temperature = 25 degC
*   DC Bias Current = 0 A
*   Small Signal Operation
*----------------------------------------------------------------------
.SUBCKT LQP03TN16NJ02 port1 port2
C1 port1 port2 1.05e-13
L2 port1 1 1.73e-8
R2 1 port2 6.00e-1
R3 port1 port2 1.20e+4
L4 port1 2 2.70e-7
R4 2 port2 750
L5 port1 3 8.00e-7
R5 3 port2 500
L6 port1 4 2.70e-7
R6 4 port2 60.0
L7 port1 5 8.00e-9
C7 5 6 1.15e-14
R7 6 port2 40.0
.ENDS LQP03TN16NJ02
*----------------------------------------------------------------------
*----------------------------------------------------------------------
* SPICE Model generated by Murata Manufacturing Co., Ltd.
* Copyright(C) Murata Manufacturing Co., Ltd.
* MURATA P/N : LQP03TN18NH02
* Property : L = 18[nH]
*----------------------------------------------------------------------
* Applicable Conditions:
*   Frequency Range = 1MHz - 20GHz
*   Temperature = 25 degC
*   DC Bias Current = 0 A
*   Small Signal Operation
*----------------------------------------------------------------------
.SUBCKT LQP03TN18NH02 port1 port2
C1 port1 port2 1.22e-13
L2 port1 1 1.94e-8
R2 1 port2 5.00e-1
R3 port1 port2 1.20e+4
L4 port1 2 3.70e-7
R4 2 port2 1.10e+3
L5 port1 3 6.50e-7
R5 3 port2 500
L6 port1 4 3.00e-7
R6 4 port2 90.0
L7 port1 5 1.71e-8
C7 5 6 6.50e-15
R7 6 port2 60.0
.ENDS LQP03TN18NH02
*----------------------------------------------------------------------
*----------------------------------------------------------------------
* SPICE Model generated by Murata Manufacturing Co., Ltd.
* Copyright(C) Murata Manufacturing Co., Ltd.
* MURATA P/N : LQP03TN18NJ02
* Property : L = 18[nH]
*----------------------------------------------------------------------
* Applicable Conditions:
*   Frequency Range = 1MHz - 20GHz
*   Temperature = 25 degC
*   DC Bias Current = 0 A
*   Small Signal Operation
*----------------------------------------------------------------------
.SUBCKT LQP03TN18NJ02 port1 port2
C1 port1 port2 1.22e-13
L2 port1 1 1.94e-8
R2 1 port2 5.00e-1
R3 port1 port2 1.20e+4
L4 port1 2 3.70e-7
R4 2 port2 1.10e+3
L5 port1 3 6.50e-7
R5 3 port2 500
L6 port1 4 3.00e-7
R6 4 port2 90.0
L7 port1 5 1.71e-8
C7 5 6 6.50e-15
R7 6 port2 60.0
.ENDS LQP03TN18NJ02
*----------------------------------------------------------------------
*----------------------------------------------------------------------
* SPICE Model generated by Murata Manufacturing Co., Ltd.
* Copyright(C) Murata Manufacturing Co., Ltd.
* MURATA P/N : LQP03TN1N0B02
* Property : L = 1[nH]
*----------------------------------------------------------------------
* Applicable Conditions:
*   Frequency Range = 1MHz - 20GHz
*   Temperature = 25 degC
*   DC Bias Current = 0 A
*   Small Signal Operation
*----------------------------------------------------------------------
.SUBCKT LQP03TN1N0B02 port1 port2
C1 port1 port2 1.00e-14
L2 port1 1 7.00e-10
R2 1 port2 4.30e-2
R3 port1 port2 1.30e+3
L4 port1 2 1.80e-8
R4 2 port2 75.0
L5 port1 3 2.00e-7
R5 3 port2 2.00e+3
L6 port1 4 4.40e-8
R6 4 port2 35.0
L7 port1 5 5.00e-9
C7 5 6 7.60e-15
R7 6 port2 1.00e-1
.ENDS LQP03TN1N0B02
*----------------------------------------------------------------------
*----------------------------------------------------------------------
* SPICE Model generated by Murata Manufacturing Co., Ltd.
* Copyright(C) Murata Manufacturing Co., Ltd.
* MURATA P/N : LQP03TN1N0C02
* Property : L = 1[nH]
*----------------------------------------------------------------------
* Applicable Conditions:
*   Frequency Range = 1MHz - 20GHz
*   Temperature = 25 degC
*   DC Bias Current = 0 A
*   Small Signal Operation
*----------------------------------------------------------------------
.SUBCKT LQP03TN1N0C02 port1 port2
C1 port1 port2 1.00e-14
L2 port1 1 7.00e-10
R2 1 port2 4.30e-2
R3 port1 port2 1.30e+3
L4 port1 2 1.80e-8
R4 2 port2 75.0
L5 port1 3 2.00e-7
R5 3 port2 2.00e+3
L6 port1 4 4.40e-8
R6 4 port2 35.0
L7 port1 5 5.00e-9
C7 5 6 7.60e-15
R7 6 port2 1.00e-1
.ENDS LQP03TN1N0C02
*----------------------------------------------------------------------
*----------------------------------------------------------------------
* SPICE Model generated by Murata Manufacturing Co., Ltd.
* Copyright(C) Murata Manufacturing Co., Ltd.
* MURATA P/N : LQP03TN1N1B02
* Property : L = 1.1[nH]
*----------------------------------------------------------------------
* Applicable Conditions:
*   Frequency Range = 1MHz - 20GHz
*   Temperature = 25 degC
*   DC Bias Current = 0 A
*   Small Signal Operation
*----------------------------------------------------------------------
.SUBCKT LQP03TN1N1B02 port1 port2
C1 port1 port2 2.70e-14
L2 port1 1 8.00e-10
R2 1 port2 4.30e-2
R3 port1 port2 1.60e+3
L4 port1 2 1.80e-8
R4 2 port2 75.0
L5 port1 3 2.00e-7
R5 3 port2 2.00e+3
L6 port1 4 4.40e-8
R6 4 port2 35.0
L7 port1 5 5.00e-9
C7 5 6 7.60e-15
R7 6 port2 1.00e-1
.ENDS LQP03TN1N1B02
*----------------------------------------------------------------------
*----------------------------------------------------------------------
* SPICE Model generated by Murata Manufacturing Co., Ltd.
* Copyright(C) Murata Manufacturing Co., Ltd.
* MURATA P/N : LQP03TN1N1C02
* Property : L = 1.1[nH]
*----------------------------------------------------------------------
* Applicable Conditions:
*   Frequency Range = 1MHz - 20GHz
*   Temperature = 25 degC
*   DC Bias Current = 0 A
*   Small Signal Operation
*----------------------------------------------------------------------
.SUBCKT LQP03TN1N1C02 port1 port2
C1 port1 port2 2.70e-14
L2 port1 1 8.00e-10
R2 1 port2 4.30e-2
R3 port1 port2 1.60e+3
L4 port1 2 1.80e-8
R4 2 port2 75.0
L5 port1 3 2.00e-7
R5 3 port2 2.00e+3
L6 port1 4 4.40e-8
R6 4 port2 35.0
L7 port1 5 5.00e-9
C7 5 6 7.60e-15
R7 6 port2 1.00e-1
.ENDS LQP03TN1N1C02
*----------------------------------------------------------------------
*----------------------------------------------------------------------
* SPICE Model generated by Murata Manufacturing Co., Ltd.
* Copyright(C) Murata Manufacturing Co., Ltd.
* MURATA P/N : LQP03TN1N2B02
* Property : L = 1.2[nH]
*----------------------------------------------------------------------
* Applicable Conditions:
*   Frequency Range = 1MHz - 20GHz
*   Temperature = 25 degC
*   DC Bias Current = 0 A
*   Small Signal Operation
*----------------------------------------------------------------------
.SUBCKT LQP03TN1N2B02 port1 port2
C1 port1 port2 3.70e-14
L2 port1 1 9.00e-10
R2 1 port2 3.80e-2
R3 port1 port2 2.00e+3
L4 port1 2 1.80e-8
R4 2 port2 75.0
L5 port1 3 2.00e-7
R5 3 port2 2.00e+3
L6 port1 4 4.40e-8
R6 4 port2 35.0
L7 port1 5 5.00e-9
C7 5 6 7.60e-15
R7 6 port2 1.00e-1
.ENDS LQP03TN1N2B02
*----------------------------------------------------------------------
*----------------------------------------------------------------------
* SPICE Model generated by Murata Manufacturing Co., Ltd.
* Copyright(C) Murata Manufacturing Co., Ltd.
* MURATA P/N : LQP03TN1N2C02
* Property : L = 1.2[nH]
*----------------------------------------------------------------------
* Applicable Conditions:
*   Frequency Range = 1MHz - 20GHz
*   Temperature = 25 degC
*   DC Bias Current = 0 A
*   Small Signal Operation
*----------------------------------------------------------------------
.SUBCKT LQP03TN1N2C02 port1 port2
C1 port1 port2 3.70e-14
L2 port1 1 9.00e-10
R2 1 port2 3.80e-2
R3 port1 port2 2.00e+3
L4 port1 2 1.80e-8
R4 2 port2 75.0
L5 port1 3 2.00e-7
R5 3 port2 2.00e+3
L6 port1 4 4.40e-8
R6 4 port2 35.0
L7 port1 5 5.00e-9
C7 5 6 7.60e-15
R7 6 port2 1.00e-1
.ENDS LQP03TN1N2C02
*----------------------------------------------------------------------
*----------------------------------------------------------------------
* SPICE Model generated by Murata Manufacturing Co., Ltd.
* Copyright(C) Murata Manufacturing Co., Ltd.
* MURATA P/N : LQP03TN1N3B02
* Property : L = 1.3[nH]
*----------------------------------------------------------------------
* Applicable Conditions:
*   Frequency Range = 1MHz - 20GHz
*   Temperature = 25 degC
*   DC Bias Current = 0 A
*   Small Signal Operation
*----------------------------------------------------------------------
.SUBCKT LQP03TN1N3B02 port1 port2
C1 port1 port2 2.30e-14
L2 port1 1 1.02e-9
R2 1 port2 4.00e-2
R3 port1 port2 2.00e+3
L4 port1 2 2.10e-8
R4 2 port2 75.0
L5 port1 3 2.00e-7
R5 3 port2 2.00e+3
L6 port1 4 4.40e-8
R6 4 port2 37.0
L7 port1 5 5.00e-9
C7 5 6 7.60e-15
R7 6 port2 1.00e-1
.ENDS LQP03TN1N3B02
*----------------------------------------------------------------------
*----------------------------------------------------------------------
* SPICE Model generated by Murata Manufacturing Co., Ltd.
* Copyright(C) Murata Manufacturing Co., Ltd.
* MURATA P/N : LQP03TN1N3C02
* Property : L = 1.3[nH]
*----------------------------------------------------------------------
* Applicable Conditions:
*   Frequency Range = 1MHz - 20GHz
*   Temperature = 25 degC
*   DC Bias Current = 0 A
*   Small Signal Operation
*----------------------------------------------------------------------
.SUBCKT LQP03TN1N3C02 port1 port2
C1 port1 port2 2.30e-14
L2 port1 1 1.02e-9
R2 1 port2 4.00e-2
R3 port1 port2 2.00e+3
L4 port1 2 2.10e-8
R4 2 port2 75.0
L5 port1 3 2.00e-7
R5 3 port2 2.00e+3
L6 port1 4 4.40e-8
R6 4 port2 37.0
L7 port1 5 5.00e-9
C7 5 6 7.60e-15
R7 6 port2 1.00e-1
.ENDS LQP03TN1N3C02
*----------------------------------------------------------------------
*----------------------------------------------------------------------
* SPICE Model generated by Murata Manufacturing Co., Ltd.
* Copyright(C) Murata Manufacturing Co., Ltd.
* MURATA P/N : LQP03TN1N4B02
* Property : L = 1.4[nH]
*----------------------------------------------------------------------
* Applicable Conditions:
*   Frequency Range = 1MHz - 20GHz
*   Temperature = 25 degC
*   DC Bias Current = 0 A
*   Small Signal Operation
*----------------------------------------------------------------------
.SUBCKT LQP03TN1N4B02 port1 port2
C1 port1 port2 5.00e-14
L2 port1 1 1.13e-9
R2 1 port2 5.50e-2
R3 port1 port2 2.70e+3
L4 port1 2 2.25e-8
R4 2 port2 75.0
L5 port1 3 2.00e-7
R5 3 port2 2.00e+3
L6 port1 4 4.40e-8
R6 4 port2 37.0
L7 port1 5 5.00e-9
C7 5 6 7.60e-15
R7 6 port2 1.00e-1
.ENDS LQP03TN1N4B02
*----------------------------------------------------------------------
*----------------------------------------------------------------------
* SPICE Model generated by Murata Manufacturing Co., Ltd.
* Copyright(C) Murata Manufacturing Co., Ltd.
* MURATA P/N : LQP03TN1N4C02
* Property : L = 1.4[nH]
*----------------------------------------------------------------------
* Applicable Conditions:
*   Frequency Range = 1MHz - 20GHz
*   Temperature = 25 degC
*   DC Bias Current = 0 A
*   Small Signal Operation
*----------------------------------------------------------------------
.SUBCKT LQP03TN1N4C02 port1 port2
C1 port1 port2 5.00e-14
L2 port1 1 1.13e-9
R2 1 port2 5.50e-2
R3 port1 port2 2.70e+3
L4 port1 2 2.25e-8
R4 2 port2 75.0
L5 port1 3 2.00e-7
R5 3 port2 2.00e+3
L6 port1 4 4.40e-8
R6 4 port2 37.0
L7 port1 5 5.00e-9
C7 5 6 7.60e-15
R7 6 port2 1.00e-1
.ENDS LQP03TN1N4C02
*----------------------------------------------------------------------
*----------------------------------------------------------------------
* SPICE Model generated by Murata Manufacturing Co., Ltd.
* Copyright(C) Murata Manufacturing Co., Ltd.
* MURATA P/N : LQP03TN1N5B02
* Property : L = 1.5[nH]
*----------------------------------------------------------------------
* Applicable Conditions:
*   Frequency Range = 1MHz - 20GHz
*   Temperature = 25 degC
*   DC Bias Current = 0 A
*   Small Signal Operation
*----------------------------------------------------------------------
.SUBCKT LQP03TN1N5B02 port1 port2
C1 port1 port2 5.35e-14
L2 port1 1 1.23e-9
R2 1 port2 5.50e-2
R3 port1 port2 2.80e+3
L4 port1 2 2.40e-8
R4 2 port2 80.0
L5 port1 3 2.00e-7
R5 3 port2 2.00e+3
L6 port1 4 4.40e-8
R6 4 port2 37.0
L7 port1 5 5.00e-9
C7 5 6 7.60e-15
R7 6 port2 1.00e-1
.ENDS LQP03TN1N5B02
*----------------------------------------------------------------------
*----------------------------------------------------------------------
* SPICE Model generated by Murata Manufacturing Co., Ltd.
* Copyright(C) Murata Manufacturing Co., Ltd.
* MURATA P/N : LQP03TN1N5C02
* Property : L = 1.5[nH]
*----------------------------------------------------------------------
* Applicable Conditions:
*   Frequency Range = 1MHz - 20GHz
*   Temperature = 25 degC
*   DC Bias Current = 0 A
*   Small Signal Operation
*----------------------------------------------------------------------
.SUBCKT LQP03TN1N5C02 port1 port2
C1 port1 port2 5.35e-14
L2 port1 1 1.23e-9
R2 1 port2 5.50e-2
R3 port1 port2 2.80e+3
L4 port1 2 2.40e-8
R4 2 port2 80.0
L5 port1 3 2.00e-7
R5 3 port2 2.00e+3
L6 port1 4 4.40e-8
R6 4 port2 37.0
L7 port1 5 5.00e-9
C7 5 6 7.60e-15
R7 6 port2 1.00e-1
.ENDS LQP03TN1N5C02