*----------------------------------------------------------------------
* SPICE Model generated by Murata Manufacturing Co., Ltd.
* Copyright(C) Murata Manufacturing Co., Ltd.
* MURATA P/N : LQP02TQ0N2B02
* Property : L = 0.2[nH]
*----------------------------------------------------------------------
* Applicable Conditions:
*   Frequency Range = 1MHz - 20GHz
*   Temperature = 25 degC
*   DC Bias Current = 0 A
*   Small Signal Operation
*----------------------------------------------------------------------
.SUBCKT LQP02TQ0N2B02 port1 port2
C1 port1 port2 1.00e-14
L2 port1 1 2.95e-10
R2 1 port2 1.30e-2
R3 port1 port2 3.00e+3
L4 port1 2 5.00e-7
R4 2 port2 1.20e+3
L5 port1 3 3.50e-8
R5 3 port2 220
L6 port1 4 3.00e-9
R6 4 port2 9.00
L7 port1 5 2.50e-7
R7 5 port2 400
.ENDS LQP02TQ0N2B02
*----------------------------------------------------------------------
*----------------------------------------------------------------------
* SPICE Model generated by Murata Manufacturing Co., Ltd.
* Copyright(C) Murata Manufacturing Co., Ltd.
* MURATA P/N : LQP02TQ0N2C02
* Property : L = 0.2[nH]
*----------------------------------------------------------------------
* Applicable Conditions:
*   Frequency Range = 1MHz - 20GHz
*   Temperature = 25 degC
*   DC Bias Current = 0 A
*   Small Signal Operation
*----------------------------------------------------------------------
.SUBCKT LQP02TQ0N2C02 port1 port2
C1 port1 port2 1.00e-14
L2 port1 1 2.95e-10
R2 1 port2 1.30e-2
R3 port1 port2 3.00e+3
L4 port1 2 5.00e-7
R4 2 port2 1.20e+3
L5 port1 3 3.50e-8
R5 3 port2 220
L6 port1 4 3.00e-9
R6 4 port2 9.00
L7 port1 5 2.50e-7
R7 5 port2 400
.ENDS LQP02TQ0N2C02
*----------------------------------------------------------------------
*----------------------------------------------------------------------
* SPICE Model generated by Murata Manufacturing Co., Ltd.
* Copyright(C) Murata Manufacturing Co., Ltd.
* MURATA P/N : LQP02TQ0N3B02
* Property : L = 0.3[nH]
*----------------------------------------------------------------------
* Applicable Conditions:
*   Frequency Range = 1MHz - 20GHz
*   Temperature = 25 degC
*   DC Bias Current = 0 A
*   Small Signal Operation
*----------------------------------------------------------------------
.SUBCKT LQP02TQ0N3B02 port1 port2
C1 port1 port2 1.00e-14
L2 port1 1 3.70e-10
R2 1 port2 2.50e-2
R3 port1 port2 3.00e+3
L4 port1 2 5.00e-7
R4 2 port2 800
L5 port1 3 3.50e-8
R5 3 port2 200
L6 port1 4 3.00e-9
R6 4 port2 11.0
L7 port1 5 2.50e-7
R7 5 port2 400
.ENDS LQP02TQ0N3B02
*----------------------------------------------------------------------
*----------------------------------------------------------------------
* SPICE Model generated by Murata Manufacturing Co., Ltd.
* Copyright(C) Murata Manufacturing Co., Ltd.
* MURATA P/N : LQP02TQ0N3C02
* Property : L = 0.3[nH]
*----------------------------------------------------------------------
* Applicable Conditions:
*   Frequency Range = 1MHz - 20GHz
*   Temperature = 25 degC
*   DC Bias Current = 0 A
*   Small Signal Operation
*----------------------------------------------------------------------
.SUBCKT LQP02TQ0N3C02 port1 port2
C1 port1 port2 1.00e-14
L2 port1 1 3.70e-10
R2 1 port2 2.50e-2
R3 port1 port2 3.00e+3
L4 port1 2 5.00e-7
R4 2 port2 800
L5 port1 3 3.50e-8
R5 3 port2 200
L6 port1 4 3.00e-9
R6 4 port2 11.0
L7 port1 5 2.50e-7
R7 5 port2 400
.ENDS LQP02TQ0N3C02
*----------------------------------------------------------------------
*----------------------------------------------------------------------
* SPICE Model generated by Murata Manufacturing Co., Ltd.
* Copyright(C) Murata Manufacturing Co., Ltd.
* MURATA P/N : LQP02TQ0N4B02
* Property : L = 0.4[nH]
*----------------------------------------------------------------------
* Applicable Conditions:
*   Frequency Range = 1MHz - 20GHz
*   Temperature = 25 degC
*   DC Bias Current = 0 A
*   Small Signal Operation
*----------------------------------------------------------------------
.SUBCKT LQP02TQ0N4B02 port1 port2
C1 port1 port2 3.00e-14
L2 port1 1 5.03e-10
R2 1 port2 2.50e-2
R3 port1 port2 3.00e+3
L4 port1 2 1.70e-8
R4 2 port2 20.0
L5 port1 3 4.00e-8
R5 3 port2 400
L6 port1 4 1.00e-8
R6 4 port2 60.0
.ENDS LQP02TQ0N4B02
*----------------------------------------------------------------------
*----------------------------------------------------------------------
* SPICE Model generated by Murata Manufacturing Co., Ltd.
* Copyright(C) Murata Manufacturing Co., Ltd.
* MURATA P/N : LQP02TQ0N4C02
* Property : L = 0.4[nH]
*----------------------------------------------------------------------
* Applicable Conditions:
*   Frequency Range = 1MHz - 20GHz
*   Temperature = 25 degC
*   DC Bias Current = 0 A
*   Small Signal Operation
*----------------------------------------------------------------------
.SUBCKT LQP02TQ0N4C02 port1 port2
C1 port1 port2 3.00e-14
L2 port1 1 5.03e-10
R2 1 port2 2.50e-2
R3 port1 port2 3.00e+3
L4 port1 2 1.70e-8
R4 2 port2 20.0
L5 port1 3 4.00e-8
R5 3 port2 400
L6 port1 4 1.00e-8
R6 4 port2 60.0
.ENDS LQP02TQ0N4C02
*----------------------------------------------------------------------
*----------------------------------------------------------------------
* SPICE Model generated by Murata Manufacturing Co., Ltd.
* Copyright(C) Murata Manufacturing Co., Ltd.
* MURATA P/N : LQP02TQ0N5B02
* Property : L = 0.5[nH]
*----------------------------------------------------------------------
* Applicable Conditions:
*   Frequency Range = 1MHz - 20GHz
*   Temperature = 25 degC
*   DC Bias Current = 0 A
*   Small Signal Operation
*----------------------------------------------------------------------
.SUBCKT LQP02TQ0N5B02 port1 port2
C1 port1 port2 2.00e-14
L2 port1 1 6.00e-10
R2 1 port2 2.50e-2
R3 port1 port2 3.00e+3
L4 port1 2 1.60e-8
R4 2 port2 20.0
L5 port1 3 4.00e-8
R5 3 port2 400
L6 port1 4 1.00e-8
R6 4 port2 60.0
.ENDS LQP02TQ0N5B02
*----------------------------------------------------------------------
*----------------------------------------------------------------------
* SPICE Model generated by Murata Manufacturing Co., Ltd.
* Copyright(C) Murata Manufacturing Co., Ltd.
* MURATA P/N : LQP02TQ0N5C02
* Property : L = 0.5[nH]
*----------------------------------------------------------------------
* Applicable Conditions:
*   Frequency Range = 1MHz - 20GHz
*   Temperature = 25 degC
*   DC Bias Current = 0 A
*   Small Signal Operation
*----------------------------------------------------------------------
.SUBCKT LQP02TQ0N5C02 port1 port2
C1 port1 port2 2.00e-14
L2 port1 1 6.00e-10
R2 1 port2 2.50e-2
R3 port1 port2 3.00e+3
L4 port1 2 1.60e-8
R4 2 port2 20.0
L5 port1 3 4.00e-8
R5 3 port2 400
L6 port1 4 1.00e-8
R6 4 port2 60.0
.ENDS LQP02TQ0N5C02
*----------------------------------------------------------------------
*----------------------------------------------------------------------
* SPICE Model generated by Murata Manufacturing Co., Ltd.
* Copyright(C) Murata Manufacturing Co., Ltd.
* MURATA P/N : LQP02TQ0N6B02
* Property : L = 0.6[nH]
*----------------------------------------------------------------------
* Applicable Conditions:
*   Frequency Range = 1MHz - 20GHz
*   Temperature = 25 degC
*   DC Bias Current = 0 A
*   Small Signal Operation
*----------------------------------------------------------------------
.SUBCKT LQP02TQ0N6B02 port1 port2
C1 port1 port2 2.00e-14
L2 port1 1 7.20e-10
R2 1 port2 3.50e-2
R3 port1 port2 3.00e+3
L4 port1 2 1.60e-8
R4 2 port2 20.0
L5 port1 3 4.00e-8
R5 3 port2 400
L6 port1 4 1.00e-8
R6 4 port2 60.0
.ENDS LQP02TQ0N6B02
*----------------------------------------------------------------------
*----------------------------------------------------------------------
* SPICE Model generated by Murata Manufacturing Co., Ltd.
* Copyright(C) Murata Manufacturing Co., Ltd.
* MURATA P/N : LQP02TQ0N6C02
* Property : L = 0.6[nH]
*----------------------------------------------------------------------
* Applicable Conditions:
*   Frequency Range = 1MHz - 20GHz
*   Temperature = 25 degC
*   DC Bias Current = 0 A
*   Small Signal Operation
*----------------------------------------------------------------------
.SUBCKT LQP02TQ0N6C02 port1 port2
C1 port1 port2 2.00e-14
L2 port1 1 7.20e-10
R2 1 port2 3.50e-2
R3 port1 port2 3.00e+3
L4 port1 2 1.60e-8
R4 2 port2 20.0
L5 port1 3 4.00e-8
R5 3 port2 400
L6 port1 4 1.00e-8
R6 4 port2 60.0
.ENDS LQP02TQ0N6C02
*----------------------------------------------------------------------
*----------------------------------------------------------------------
* SPICE Model generated by Murata Manufacturing Co., Ltd.
* Copyright(C) Murata Manufacturing Co., Ltd.
* MURATA P/N : LQP02TQ0N7B02
* Property : L = 0.7[nH]
*----------------------------------------------------------------------
* Applicable Conditions:
*   Frequency Range = 1MHz - 20GHz
*   Temperature = 25 degC
*   DC Bias Current = 0 A
*   Small Signal Operation
*----------------------------------------------------------------------
.SUBCKT LQP02TQ0N7B02 port1 port2
C1 port1 port2 2.00e-14
L2 port1 1 8.40e-10
R2 1 port2 3.50e-2
R3 port1 port2 3.00e+3
L4 port1 2 1.80e-8
R4 2 port2 20.0
L5 port1 3 4.00e-8
R5 3 port2 40.0
L6 port1 4 1.00e-8
R6 4 port2 60.0
.ENDS LQP02TQ0N7B02
*----------------------------------------------------------------------
*----------------------------------------------------------------------
* SPICE Model generated by Murata Manufacturing Co., Ltd.
* Copyright(C) Murata Manufacturing Co., Ltd.
* MURATA P/N : LQP02TQ0N7C02
* Property : L = 0.7[nH]
*----------------------------------------------------------------------
* Applicable Conditions:
*   Frequency Range = 1MHz - 20GHz
*   Temperature = 25 degC
*   DC Bias Current = 0 A
*   Small Signal Operation
*----------------------------------------------------------------------
.SUBCKT LQP02TQ0N7C02 port1 port2
C1 port1 port2 2.00e-14
L2 port1 1 8.40e-10
R2 1 port2 3.50e-2
R3 port1 port2 3.00e+3
L4 port1 2 1.80e-8
R4 2 port2 20.0
L5 port1 3 4.00e-8
R5 3 port2 40.0
L6 port1 4 1.00e-8
R6 4 port2 60.0
.ENDS LQP02TQ0N7C02
*----------------------------------------------------------------------
*----------------------------------------------------------------------
* SPICE Model generated by Murata Manufacturing Co., Ltd.
* Copyright(C) Murata Manufacturing Co., Ltd.
* MURATA P/N : LQP02TQ0N8B02
* Property : L = 0.8[nH]
*----------------------------------------------------------------------
* Applicable Conditions:
*   Frequency Range = 1MHz - 20GHz
*   Temperature = 25 degC
*   DC Bias Current = 0 A
*   Small Signal Operation
*----------------------------------------------------------------------
.SUBCKT LQP02TQ0N8B02 port1 port2
C1 port1 port2 3.00e-14
L2 port1 1 9.60e-10
R2 1 port2 4.50e-2
R3 port1 port2 3.00e+3
L4 port1 2 1.90e-8
R4 2 port2 20.0
L5 port1 3 5.00e-8
R5 3 port2 400
L6 port1 4 1.30e-8
R6 4 port2 60.0
.ENDS LQP02TQ0N8B02
*----------------------------------------------------------------------
*----------------------------------------------------------------------
* SPICE Model generated by Murata Manufacturing Co., Ltd.
* Copyright(C) Murata Manufacturing Co., Ltd.
* MURATA P/N : LQP02TQ0N8C02
* Property : L = 0.8[nH]
*----------------------------------------------------------------------
* Applicable Conditions:
*   Frequency Range = 1MHz - 20GHz
*   Temperature = 25 degC
*   DC Bias Current = 0 A
*   Small Signal Operation
*----------------------------------------------------------------------
.SUBCKT LQP02TQ0N8C02 port1 port2
C1 port1 port2 3.00e-14
L2 port1 1 9.60e-10
R2 1 port2 4.50e-2
R3 port1 port2 3.00e+3
L4 port1 2 1.90e-8
R4 2 port2 20.0
L5 port1 3 5.00e-8
R5 3 port2 400
L6 port1 4 1.30e-8
R6 4 port2 60.0
.ENDS LQP02TQ0N8C02
*----------------------------------------------------------------------
*----------------------------------------------------------------------
* SPICE Model generated by Murata Manufacturing Co., Ltd.
* Copyright(C) Murata Manufacturing Co., Ltd.
* MURATA P/N : LQP02TQ0N9B02
* Property : L = 0.9[nH]
*----------------------------------------------------------------------
* Applicable Conditions:
*   Frequency Range = 1MHz - 20GHz
*   Temperature = 25 degC
*   DC Bias Current = 0 A
*   Small Signal Operation
*----------------------------------------------------------------------
.SUBCKT LQP02TQ0N9B02 port1 port2
C1 port1 port2 3.00e-14
L2 port1 1 1.07e-9
R2 1 port2 4.50e-2
R3 port1 port2 3.20e+3
L4 port1 2 1.90e-8
R4 2 port2 20.0
L5 port1 3 5.00e-8
R5 3 port2 400
L6 port1 4 1.30e-8
R6 4 port2 60.0
.ENDS LQP02TQ0N9B02
*----------------------------------------------------------------------
*----------------------------------------------------------------------
* SPICE Model generated by Murata Manufacturing Co., Ltd.
* Copyright(C) Murata Manufacturing Co., Ltd.
* MURATA P/N : LQP02TQ0N9C02
* Property : L = 0.9[nH]
*----------------------------------------------------------------------
* Applicable Conditions:
*   Frequency Range = 1MHz - 20GHz
*   Temperature = 25 degC
*   DC Bias Current = 0 A
*   Small Signal Operation
*----------------------------------------------------------------------
.SUBCKT LQP02TQ0N9C02 port1 port2
C1 port1 port2 3.00e-14
L2 port1 1 1.07e-9
R2 1 port2 4.50e-2
R3 port1 port2 3.20e+3
L4 port1 2 1.90e-8
R4 2 port2 20.0
L5 port1 3 5.00e-8
R5 3 port2 400
L6 port1 4 1.30e-8
R6 4 port2 60.0
.ENDS LQP02TQ0N9C02
*----------------------------------------------------------------------
*----------------------------------------------------------------------
* SPICE Model generated by Murata Manufacturing Co., Ltd.
* Copyright(C) Murata Manufacturing Co., Ltd.
* MURATA P/N : LQP02TQ10NH02
* Property : L = 10[nH]
*----------------------------------------------------------------------
* Applicable Conditions:
*   Frequency Range = 1MHz - 20GHz
*   Temperature = 25 degC
*   DC Bias Current = 0 A
*   Small Signal Operation
*----------------------------------------------------------------------
.SUBCKT LQP02TQ10NH02 port1 port2
C1 port1 port2 6.30e-14
L2 port1 1 1.15e-8
R2 1 port2 1.05
R3 port1 port2 2.50e+4
L4 port1 2 1.65e-7
R4 2 port2 920
L5 port1 3 3.40e-7
R5 3 port2 380
L6 port1 4 2.00e-7
R6 4 port2 60.0
.ENDS LQP02TQ10NH02
*----------------------------------------------------------------------
*----------------------------------------------------------------------
* SPICE Model generated by Murata Manufacturing Co., Ltd.
* Copyright(C) Murata Manufacturing Co., Ltd.
* MURATA P/N : LQP02TQ10NJ02
* Property : L = 10[nH]
*----------------------------------------------------------------------
* Applicable Conditions:
*   Frequency Range = 1MHz - 20GHz
*   Temperature = 25 degC
*   DC Bias Current = 0 A
*   Small Signal Operation
*----------------------------------------------------------------------
.SUBCKT LQP02TQ10NJ02 port1 port2
C1 port1 port2 6.30e-14
L2 port1 1 1.15e-8
R2 1 port2 1.05
R3 port1 port2 2.50e+4
L4 port1 2 1.65e-7
R4 2 port2 920
L5 port1 3 3.40e-7
R5 3 port2 380
L6 port1 4 2.00e-7
R6 4 port2 60.0
.ENDS LQP02TQ10NJ02
*----------------------------------------------------------------------
*----------------------------------------------------------------------
* SPICE Model generated by Murata Manufacturing Co., Ltd.
* Copyright(C) Murata Manufacturing Co., Ltd.
* MURATA P/N : LQP02TQ11NH02
* Property : L = 11[nH]
*----------------------------------------------------------------------
* Applicable Conditions:
*   Frequency Range = 1MHz - 20GHz
*   Temperature = 25 degC
*   DC Bias Current = 0 A
*   Small Signal Operation
*----------------------------------------------------------------------
.SUBCKT LQP02TQ11NH02 port1 port2
C1 port1 port2 6.50e-14
L2 port1 1 1.28e-8
R2 1 port2 9.50e-1
R3 port1 port2 2.30e+4
L4 port1 2 1.65e-7
R4 2 port2 920
L5 port1 3 3.40e-7
R5 3 port2 380
L6 port1 4 2.00e-7
R6 4 port2 75.0
.ENDS LQP02TQ11NH02
*----------------------------------------------------------------------
*----------------------------------------------------------------------
* SPICE Model generated by Murata Manufacturing Co., Ltd.
* Copyright(C) Murata Manufacturing Co., Ltd.
* MURATA P/N : LQP02TQ11NJ02
* Property : L = 11[nH]
*----------------------------------------------------------------------
* Applicable Conditions:
*   Frequency Range = 1MHz - 20GHz
*   Temperature = 25 degC
*   DC Bias Current = 0 A
*   Small Signal Operation
*----------------------------------------------------------------------
.SUBCKT LQP02TQ11NJ02 port1 port2
C1 port1 port2 6.50e-14
L2 port1 1 1.28e-8
R2 1 port2 9.50e-1
R3 port1 port2 2.30e+4
L4 port1 2 1.65e-7
R4 2 port2 920
L5 port1 3 3.40e-7
R5 3 port2 380
L6 port1 4 2.00e-7
R6 4 port2 75.0
.ENDS LQP02TQ11NJ02
*----------------------------------------------------------------------
*----------------------------------------------------------------------
* SPICE Model generated by Murata Manufacturing Co., Ltd.
* Copyright(C) Murata Manufacturing Co., Ltd.
* MURATA P/N : LQP02TQ12NH02
* Property : L = 12[nH]
*----------------------------------------------------------------------
* Applicable Conditions:
*   Frequency Range = 1MHz - 20GHz
*   Temperature = 25 degC
*   DC Bias Current = 0 A
*   Small Signal Operation
*----------------------------------------------------------------------
.SUBCKT LQP02TQ12NH02 port1 port2
C1 port1 port2 6.60e-14
L2 port1 1 1.40e-8
R2 1 port2 1.25
R3 port1 port2 2.20e+4
L4 port1 2 1.90e-7
R4 2 port2 1.00e+3
L5 port1 3 3.40e-7
R5 3 port2 380
L6 port1 4 2.00e-7
R6 4 port2 48.0
.ENDS LQP02TQ12NH02
*----------------------------------------------------------------------
*----------------------------------------------------------------------
* SPICE Model generated by Murata Manufacturing Co., Ltd.
* Copyright(C) Murata Manufacturing Co., Ltd.
* MURATA P/N : LQP02TQ12NJ02
* Property : L = 12[nH]
*----------------------------------------------------------------------
* Applicable Conditions:
*   Frequency Range = 1MHz - 20GHz
*   Temperature = 25 degC
*   DC Bias Current = 0 A
*   Small Signal Operation
*----------------------------------------------------------------------
.SUBCKT LQP02TQ12NJ02 port1 port2
C1 port1 port2 6.60e-14
L2 port1 1 1.40e-8
R2 1 port2 1.25
R3 port1 port2 2.20e+4
L4 port1 2 1.90e-7
R4 2 port2 1.00e+3
L5 port1 3 3.40e-7
R5 3 port2 380
L6 port1 4 2.00e-7
R6 4 port2 48.0
.ENDS LQP02TQ12NJ02
*----------------------------------------------------------------------
*----------------------------------------------------------------------
* SPICE Model generated by Murata Manufacturing Co., Ltd.
* Copyright(C) Murata Manufacturing Co., Ltd.
* MURATA P/N : LQP02TQ13NH02
* Property : L = 13[nH]
*----------------------------------------------------------------------
* Applicable Conditions:
*   Frequency Range = 1MHz - 20GHz
*   Temperature = 25 degC
*   DC Bias Current = 0 A
*   Small Signal Operation
*----------------------------------------------------------------------
.SUBCKT LQP02TQ13NH02 port1 port2
C1 port1 port2 6.30e-14
L2 port1 1 1.52e-8
R2 1 port2 1.70
R3 port1 port2 2.60e+4
L4 port1 2 2.20e-7
R4 2 port2 1.30e+3
L5 port1 3 3.40e-7
R5 3 port2 380
L6 port1 4 2.00e-7
R6 4 port2 48.0
.ENDS LQP02TQ13NH02
*----------------------------------------------------------------------
*----------------------------------------------------------------------
* SPICE Model generated by Murata Manufacturing Co., Ltd.
* Copyright(C) Murata Manufacturing Co., Ltd.
* MURATA P/N : LQP02TQ13NJ02
* Property : L = 13[nH]
*----------------------------------------------------------------------
* Applicable Conditions:
*   Frequency Range = 1MHz - 20GHz
*   Temperature = 25 degC
*   DC Bias Current = 0 A
*   Small Signal Operation
*----------------------------------------------------------------------
.SUBCKT LQP02TQ13NJ02 port1 port2
C1 port1 port2 6.30e-14
L2 port1 1 1.52e-8
R2 1 port2 1.70
R3 port1 port2 2.60e+4
L4 port1 2 2.20e-7
R4 2 port2 1.30e+3
L5 port1 3 3.40e-7
R5 3 port2 380
L6 port1 4 2.00e-7
R6 4 port2 48.0
.ENDS LQP02TQ13NJ02
*----------------------------------------------------------------------
*----------------------------------------------------------------------
* SPICE Model generated by Murata Manufacturing Co., Ltd.
* Copyright(C) Murata Manufacturing Co., Ltd.
* MURATA P/N : LQP02TQ15NH02
* Property : L = 15[nH]
*----------------------------------------------------------------------
* Applicable Conditions:
*   Frequency Range = 1MHz - 20GHz
*   Temperature = 25 degC
*   DC Bias Current = 0 A
*   Small Signal Operation
*----------------------------------------------------------------------
.SUBCKT LQP02TQ15NH02 port1 port2
C1 port1 port2 6.50e-14
L2 port1 1 1.80e-8
R2 1 port2 1.25
R3 port1 port2 2.10e+4
L4 port1 2 2.20e-7
R4 2 port2 1.10e+3
L5 port1 3 3.40e-7
R5 3 port2 380
L6 port1 4 2.05e-7
R6 4 port2 55.0
.ENDS LQP02TQ15NH02
*----------------------------------------------------------------------
*----------------------------------------------------------------------
* SPICE Model generated by Murata Manufacturing Co., Ltd.
* Copyright(C) Murata Manufacturing Co., Ltd.
* MURATA P/N : LQP02TQ15NJ02
* Property : L = 15[nH]
*----------------------------------------------------------------------
* Applicable Conditions:
*   Frequency Range = 1MHz - 20GHz
*   Temperature = 25 degC
*   DC Bias Current = 0 A
*   Small Signal Operation
*----------------------------------------------------------------------
.SUBCKT LQP02TQ15NJ02 port1 port2
C1 port1 port2 6.50e-14
L2 port1 1 1.80e-8
R2 1 port2 1.25
R3 port1 port2 2.10e+4
L4 port1 2 2.20e-7
R4 2 port2 1.10e+3
L5 port1 3 3.40e-7
R5 3 port2 380
L6 port1 4 2.05e-7
R6 4 port2 55.0
.ENDS LQP02TQ15NJ02
*----------------------------------------------------------------------
*----------------------------------------------------------------------
* SPICE Model generated by Murata Manufacturing Co., Ltd.
* Copyright(C) Murata Manufacturing Co., Ltd.
* MURATA P/N : LQP02TQ16NH02
* Property : L = 16[nH]
*----------------------------------------------------------------------
* Applicable Conditions:
*   Frequency Range = 1MHz - 20GHz
*   Temperature = 25 degC
*   DC Bias Current = 0 A
*   Small Signal Operation
*----------------------------------------------------------------------
.SUBCKT LQP02TQ16NH02 port1 port2
C1 port1 port2 6.50e-14
L2 port1 1 1.92e-8
R2 1 port2 1.50
R3 port1 port2 2.40e+4
L4 port1 2 2.60e-7
R4 2 port2 1.40e+3
L5 port1 3 3.40e-7
R5 3 port2 380
L6 port1 4 2.05e-7
R6 4 port2 40.0
.ENDS LQP02TQ16NH02
*----------------------------------------------------------------------
*----------------------------------------------------------------------
* SPICE Model generated by Murata Manufacturing Co., Ltd.
* Copyright(C) Murata Manufacturing Co., Ltd.
* MURATA P/N : LQP02TQ16NJ02
* Property : L = 16[nH]
*----------------------------------------------------------------------
* Applicable Conditions:
*   Frequency Range = 1MHz - 20GHz
*   Temperature = 25 degC
*   DC Bias Current = 0 A
*   Small Signal Operation
*----------------------------------------------------------------------
.SUBCKT LQP02TQ16NJ02 port1 port2
C1 port1 port2 6.50e-14
L2 port1 1 1.92e-8
R2 1 port2 1.50
R3 port1 port2 2.40e+4
L4 port1 2 2.60e-7
R4 2 port2 1.40e+3
L5 port1 3 3.40e-7
R5 3 port2 380
L6 port1 4 2.05e-7
R6 4 port2 40.0
.ENDS LQP02TQ16NJ02
*----------------------------------------------------------------------
*----------------------------------------------------------------------
* SPICE Model generated by Murata Manufacturing Co., Ltd.
* Copyright(C) Murata Manufacturing Co., Ltd.
* MURATA P/N : LQP02TQ18NH02
* Property : L = 18[nH]
*----------------------------------------------------------------------
* Applicable Conditions:
*   Frequency Range = 1MHz - 20GHz
*   Temperature = 25 degC
*   DC Bias Current = 0 A
*   Small Signal Operation
*----------------------------------------------------------------------
.SUBCKT LQP02TQ18NH02 port1 port2
C1 port1 port2 6.80e-14
L2 port1 1 2.20e-8
R2 1 port2 1.70
R3 port1 port2 2.10e+4
L4 port1 2 2.70e-7
R4 2 port2 1.40e+3
L5 port1 3 3.00e-7
R5 3 port2 600
L6 port1 4 2.00e-7
R6 4 port2 60.0
.ENDS LQP02TQ18NH02
*----------------------------------------------------------------------
*----------------------------------------------------------------------
* SPICE Model generated by Murata Manufacturing Co., Ltd.
* Copyright(C) Murata Manufacturing Co., Ltd.
* MURATA P/N : LQP02TQ18NJ02
* Property : L = 18[nH]
*----------------------------------------------------------------------
* Applicable Conditions:
*   Frequency Range = 1MHz - 20GHz
*   Temperature = 25 degC
*   DC Bias Current = 0 A
*   Small Signal Operation
*----------------------------------------------------------------------
.SUBCKT LQP02TQ18NJ02 port1 port2
C1 port1 port2 6.80e-14
L2 port1 1 2.20e-8
R2 1 port2 1.70
R3 port1 port2 2.10e+4
L4 port1 2 2.70e-7
R4 2 port2 1.40e+3
L5 port1 3 3.00e-7
R5 3 port2 600
L6 port1 4 2.00e-7
R6 4 port2 60.0
.ENDS LQP02TQ18NJ02
*----------------------------------------------------------------------
*----------------------------------------------------------------------
* SPICE Model generated by Murata Manufacturing Co., Ltd.
* Copyright(C) Murata Manufacturing Co., Ltd.
* MURATA P/N : LQP02TQ1N0B02
* Property : L = 1[nH]
*----------------------------------------------------------------------
* Applicable Conditions:
*   Frequency Range = 1MHz - 20GHz
*   Temperature = 25 degC
*   DC Bias Current = 0 A
*   Small Signal Operation
*----------------------------------------------------------------------
.SUBCKT LQP02TQ1N0B02 port1 port2
C1 port1 port2 3.00e-14
L2 port1 1 1.16e-9
R2 1 port2 1.00e-1
R3 port1 port2 3.00e+3
L4 port1 2 2.40e-8
R4 2 port2 140
L5 port1 3 8.00e-8
R5 3 port2 400
L6 port1 4 2.50e-8
R6 4 port2 30.0
.ENDS LQP02TQ1N0B02
*----------------------------------------------------------------------
*----------------------------------------------------------------------
* SPICE Model generated by Murata Manufacturing Co., Ltd.
* Copyright(C) Murata Manufacturing Co., Ltd.
* MURATA P/N : LQP02TQ1N0C02
* Property : L = 1[nH]
*----------------------------------------------------------------------
* Applicable Conditions:
*   Frequency Range = 1MHz - 20GHz
*   Temperature = 25 degC
*   DC Bias Current = 0 A
*   Small Signal Operation
*----------------------------------------------------------------------
.SUBCKT LQP02TQ1N0C02 port1 port2
C1 port1 port2 3.00e-14
L2 port1 1 1.16e-9
R2 1 port2 1.00e-1
R3 port1 port2 3.00e+3
L4 port1 2 2.40e-8
R4 2 port2 140
L5 port1 3 8.00e-8
R5 3 port2 400
L6 port1 4 2.50e-8
R6 4 port2 30.0
.ENDS LQP02TQ1N0C02
*----------------------------------------------------------------------
*----------------------------------------------------------------------
* SPICE Model generated by Murata Manufacturing Co., Ltd.
* Copyright(C) Murata Manufacturing Co., Ltd.
* MURATA P/N : LQP02TQ1N1B02
* Property : L = 1.1[nH]
*----------------------------------------------------------------------
* Applicable Conditions:
*   Frequency Range = 1MHz - 20GHz
*   Temperature = 25 degC
*   DC Bias Current = 0 A
*   Small Signal Operation
*----------------------------------------------------------------------
.SUBCKT LQP02TQ1N1B02 port1 port2
C1 port1 port2 4.00e-14
L2 port1 1 1.28e-9
R2 1 port2 1.00e-1
R3 port1 port2 4.50e+3
L4 port1 2 2.60e-8
R4 2 port2 200
L5 port1 3 8.00e-8
R5 3 port2 400
L6 port1 4 2.50e-8
R6 4 port2 30.0
.ENDS LQP02TQ1N1B02
*----------------------------------------------------------------------
*----------------------------------------------------------------------
* SPICE Model generated by Murata Manufacturing Co., Ltd.
* Copyright(C) Murata Manufacturing Co., Ltd.
* MURATA P/N : LQP02TQ1N1C02
* Property : L = 1.1[nH]
*----------------------------------------------------------------------
* Applicable Conditions:
*   Frequency Range = 1MHz - 20GHz
*   Temperature = 25 degC
*   DC Bias Current = 0 A
*   Small Signal Operation
*----------------------------------------------------------------------
.SUBCKT LQP02TQ1N1C02 port1 port2
C1 port1 port2 4.00e-14
L2 port1 1 1.28e-9
R2 1 port2 1.00e-1
R3 port1 port2 4.50e+3
L4 port1 2 2.60e-8
R4 2 port2 200
L5 port1 3 8.00e-8
R5 3 port2 400
L6 port1 4 2.50e-8
R6 4 port2 30.0
.ENDS LQP02TQ1N1C02
*----------------------------------------------------------------------
*----------------------------------------------------------------------
* SPICE Model generated by Murata Manufacturing Co., Ltd.
* Copyright(C) Murata Manufacturing Co., Ltd.
* MURATA P/N : LQP02TQ1N2B02
* Property : L = 1.2[nH]
*----------------------------------------------------------------------
* Applicable Conditions:
*   Frequency Range = 1MHz - 20GHz
*   Temperature = 25 degC
*   DC Bias Current = 0 A
*   Small Signal Operation
*----------------------------------------------------------------------
.SUBCKT LQP02TQ1N2B02 port1 port2
C1 port1 port2 4.00e-14
L2 port1 1 1.40e-9
R2 1 port2 1.10e-1
R3 port1 port2 4.70e+3
L4 port1 2 2.80e-8
R4 2 port2 200
L5 port1 3 8.00e-8
R5 3 port2 400
L6 port1 4 2.50e-8
R6 4 port2 30.0
.ENDS LQP02TQ1N2B02
*----------------------------------------------------------------------
*----------------------------------------------------------------------
* SPICE Model generated by Murata Manufacturing Co., Ltd.
* Copyright(C) Murata Manufacturing Co., Ltd.
* MURATA P/N : LQP02TQ1N2C02
* Property : L = 1.2[nH]
*----------------------------------------------------------------------
* Applicable Conditions:
*   Frequency Range = 1MHz - 20GHz
*   Temperature = 25 degC
*   DC Bias Current = 0 A
*   Small Signal Operation
*----------------------------------------------------------------------
.SUBCKT LQP02TQ1N2C02 port1 port2
C1 port1 port2 4.00e-14
L2 port1 1 1.40e-9
R2 1 port2 1.10e-1
R3 port1 port2 4.70e+3
L4 port1 2 2.80e-8
R4 2 port2 200
L5 port1 3 8.00e-8
R5 3 port2 400
L6 port1 4 2.50e-8
R6 4 port2 30.0
.ENDS LQP02TQ1N2C02
*----------------------------------------------------------------------