*----------------------------------------------------------------------
* SPICE Model generated by Murata Manufacturing Co., Ltd.
* Copyright(C) Murata Manufacturing Co., Ltd.
* MURATA P/N : LQP02HQ0N4B02
* Property : L = 0.4[nH]
*----------------------------------------------------------------------
* Applicable Conditions:
*   Frequency Range = 1MHz - 20GHz
*   Temperature = 25 degC
*   DC Bias Current = 0 A
*   Small Signal Operation
*----------------------------------------------------------------------
.SUBCKT LQP02HQ0N4B02 port1 port2
C1 port1 port2 4.53e-14
L2 port1 1 6.72e-10
R2 1 port2 1.55e-2
R3 port1 port2 1.68e+3
L4 port1 2 1.41e-8
R4 2 port2 62.4
L5 port1 3 7.15e-9
R5 3 port2 4.79
L6 port1 4 4.08e-9
R6 4 port2 7.93e-2
.ENDS LQP02HQ0N4B02
*----------------------------------------------------------------------
*----------------------------------------------------------------------
* SPICE Model generated by Murata Manufacturing Co., Ltd.
* Copyright(C) Murata Manufacturing Co., Ltd.
* MURATA P/N : LQP02HQ0N4C02
* Property : L = 0.4[nH]
*----------------------------------------------------------------------
* Applicable Conditions:
*   Frequency Range = 1MHz - 20GHz
*   Temperature = 25 degC
*   DC Bias Current = 0 A
*   Small Signal Operation
*----------------------------------------------------------------------
.SUBCKT LQP02HQ0N4C02 port1 port2
C1 port1 port2 4.53e-14
L2 port1 1 6.72e-10
R2 1 port2 1.55e-2
R3 port1 port2 1.68e+3
L4 port1 2 1.41e-8
R4 2 port2 62.4
L5 port1 3 7.15e-9
R5 3 port2 4.79
L6 port1 4 4.08e-9
R6 4 port2 7.93e-2
.ENDS LQP02HQ0N4C02
*----------------------------------------------------------------------
*----------------------------------------------------------------------
* SPICE Model generated by Murata Manufacturing Co., Ltd.
* Copyright(C) Murata Manufacturing Co., Ltd.
* MURATA P/N : LQP02HQ0N4W02
* Property : L = 0.4[nH]
*----------------------------------------------------------------------
* Applicable Conditions:
*   Frequency Range = 1MHz - 20GHz
*   Temperature = 25 degC
*   DC Bias Current = 0 A
*   Small Signal Operation
*----------------------------------------------------------------------
.SUBCKT LQP02HQ0N4W02 port1 port2
C1 port1 port2 4.53e-14
L2 port1 1 6.72e-10
R2 1 port2 1.55e-2
R3 port1 port2 1.68e+3
L4 port1 2 1.41e-8
R4 2 port2 62.4
L5 port1 3 7.15e-9
R5 3 port2 4.79
L6 port1 4 4.08e-9
R6 4 port2 7.93e-2
.ENDS LQP02HQ0N4W02
*----------------------------------------------------------------------
*----------------------------------------------------------------------
* SPICE Model generated by Murata Manufacturing Co., Ltd.
* Copyright(C) Murata Manufacturing Co., Ltd.
* MURATA P/N : LQP02HQ0N5B02
* Property : L = 0.5[nH]
*----------------------------------------------------------------------
* Applicable Conditions:
*   Frequency Range = 1MHz - 20GHz
*   Temperature = 25 degC
*   DC Bias Current = 0 A
*   Small Signal Operation
*----------------------------------------------------------------------
.SUBCKT LQP02HQ0N5B02 port1 port2
C1 port1 port2 4.53e-14
L2 port1 1 6.75e-10
R2 1 port2 1.83e-2
R3 port1 port2 2.65e+3
L4 port1 2 1.40e-8
R4 2 port2 59.6
L5 port1 3 1.68e-8
R5 3 port2 12.9
L6 port1 4 2.69e-8
R6 4 port2 5.74
.ENDS LQP02HQ0N5B02
*----------------------------------------------------------------------
*----------------------------------------------------------------------
* SPICE Model generated by Murata Manufacturing Co., Ltd.
* Copyright(C) Murata Manufacturing Co., Ltd.
* MURATA P/N : LQP02HQ0N5C02
* Property : L = 0.5[nH]
*----------------------------------------------------------------------
* Applicable Conditions:
*   Frequency Range = 1MHz - 20GHz
*   Temperature = 25 degC
*   DC Bias Current = 0 A
*   Small Signal Operation
*----------------------------------------------------------------------
.SUBCKT LQP02HQ0N5C02 port1 port2
C1 port1 port2 4.53e-14
L2 port1 1 6.75e-10
R2 1 port2 1.83e-2
R3 port1 port2 2.65e+3
L4 port1 2 1.40e-8
R4 2 port2 59.6
L5 port1 3 1.68e-8
R5 3 port2 12.9
L6 port1 4 2.69e-8
R6 4 port2 5.74
.ENDS LQP02HQ0N5C02
*----------------------------------------------------------------------
*----------------------------------------------------------------------
* SPICE Model generated by Murata Manufacturing Co., Ltd.
* Copyright(C) Murata Manufacturing Co., Ltd.
* MURATA P/N : LQP02HQ0N5W02
* Property : L = 0.5[nH]
*----------------------------------------------------------------------
* Applicable Conditions:
*   Frequency Range = 1MHz - 20GHz
*   Temperature = 25 degC
*   DC Bias Current = 0 A
*   Small Signal Operation
*----------------------------------------------------------------------
.SUBCKT LQP02HQ0N5W02 port1 port2
C1 port1 port2 4.53e-14
L2 port1 1 6.75e-10
R2 1 port2 1.83e-2
R3 port1 port2 2.65e+3
L4 port1 2 1.40e-8
R4 2 port2 59.6
L5 port1 3 1.68e-8
R5 3 port2 12.9
L6 port1 4 2.69e-8
R6 4 port2 5.74
.ENDS LQP02HQ0N5W02
*----------------------------------------------------------------------
*----------------------------------------------------------------------
* SPICE Model generated by Murata Manufacturing Co., Ltd.
* Copyright(C) Murata Manufacturing Co., Ltd.
* MURATA P/N : LQP02HQ0N6B02
* Property : L = 0.6[nH]
*----------------------------------------------------------------------
* Applicable Conditions:
*   Frequency Range = 1MHz - 20GHz
*   Temperature = 25 degC
*   DC Bias Current = 0 A
*   Small Signal Operation
*----------------------------------------------------------------------
.SUBCKT LQP02HQ0N6B02 port1 port2
C1 port1 port2 3.94e-14
L2 port1 1 8.92e-10
R2 1 port2 2.88e-2
R3 port1 port2 5.54e+3
L4 port1 2 2.08e-8
R4 2 port2 96.6
L5 port1 3 2.42e-8
R5 3 port2 24.0
L6 port1 4 1.59e-8
R6 4 port2 2.95
.ENDS LQP02HQ0N6B02
*----------------------------------------------------------------------
*----------------------------------------------------------------------
* SPICE Model generated by Murata Manufacturing Co., Ltd.
* Copyright(C) Murata Manufacturing Co., Ltd.
* MURATA P/N : LQP02HQ0N6C02
* Property : L = 0.6[nH]
*----------------------------------------------------------------------
* Applicable Conditions:
*   Frequency Range = 1MHz - 20GHz
*   Temperature = 25 degC
*   DC Bias Current = 0 A
*   Small Signal Operation
*----------------------------------------------------------------------
.SUBCKT LQP02HQ0N6C02 port1 port2
C1 port1 port2 3.94e-14
L2 port1 1 8.92e-10
R2 1 port2 2.88e-2
R3 port1 port2 5.54e+3
L4 port1 2 2.08e-8
R4 2 port2 96.6
L5 port1 3 2.42e-8
R5 3 port2 24.0
L6 port1 4 1.59e-8
R6 4 port2 2.95
.ENDS LQP02HQ0N6C02
*----------------------------------------------------------------------
*----------------------------------------------------------------------
* SPICE Model generated by Murata Manufacturing Co., Ltd.
* Copyright(C) Murata Manufacturing Co., Ltd.
* MURATA P/N : LQP02HQ0N6W02
* Property : L = 0.6[nH]
*----------------------------------------------------------------------
* Applicable Conditions:
*   Frequency Range = 1MHz - 20GHz
*   Temperature = 25 degC
*   DC Bias Current = 0 A
*   Small Signal Operation
*----------------------------------------------------------------------
.SUBCKT LQP02HQ0N6W02 port1 port2
C1 port1 port2 3.94e-14
L2 port1 1 8.92e-10
R2 1 port2 2.88e-2
R3 port1 port2 5.54e+3
L4 port1 2 2.08e-8
R4 2 port2 96.6
L5 port1 3 2.42e-8
R5 3 port2 24.0
L6 port1 4 1.59e-8
R6 4 port2 2.95
.ENDS LQP02HQ0N6W02
*----------------------------------------------------------------------
*----------------------------------------------------------------------
* SPICE Model generated by Murata Manufacturing Co., Ltd.
* Copyright(C) Murata Manufacturing Co., Ltd.
* MURATA P/N : LQP02HQ0N7B02
* Property : L = 0.7[nH]
*----------------------------------------------------------------------
* Applicable Conditions:
*   Frequency Range = 1MHz - 20GHz
*   Temperature = 25 degC
*   DC Bias Current = 0 A
*   Small Signal Operation
*----------------------------------------------------------------------
.SUBCKT LQP02HQ0N7B02 port1 port2
C1 port1 port2 4.53e-14
L2 port1 1 9.34e-10
R2 1 port2 2.96e-2
R3 port1 port2 5.41e+3
L4 port1 2 2.62e-8
R4 2 port2 172
L5 port1 3 1.88e-8
R5 3 port2 24.6
L6 port1 4 1.18e-8
R6 4 port2 5.24
.ENDS LQP02HQ0N7B02
*----------------------------------------------------------------------
*----------------------------------------------------------------------
* SPICE Model generated by Murata Manufacturing Co., Ltd.
* Copyright(C) Murata Manufacturing Co., Ltd.
* MURATA P/N : LQP02HQ0N7C02
* Property : L = 0.7[nH]
*----------------------------------------------------------------------
* Applicable Conditions:
*   Frequency Range = 1MHz - 20GHz
*   Temperature = 25 degC
*   DC Bias Current = 0 A
*   Small Signal Operation
*----------------------------------------------------------------------
.SUBCKT LQP02HQ0N7C02 port1 port2
C1 port1 port2 4.53e-14
L2 port1 1 9.34e-10
R2 1 port2 2.96e-2
R3 port1 port2 5.41e+3
L4 port1 2 2.62e-8
R4 2 port2 172
L5 port1 3 1.88e-8
R5 3 port2 24.6
L6 port1 4 1.18e-8
R6 4 port2 5.24
.ENDS LQP02HQ0N7C02
*----------------------------------------------------------------------
*----------------------------------------------------------------------
* SPICE Model generated by Murata Manufacturing Co., Ltd.
* Copyright(C) Murata Manufacturing Co., Ltd.
* MURATA P/N : LQP02HQ0N7W02
* Property : L = 0.7[nH]
*----------------------------------------------------------------------
* Applicable Conditions:
*   Frequency Range = 1MHz - 20GHz
*   Temperature = 25 degC
*   DC Bias Current = 0 A
*   Small Signal Operation
*----------------------------------------------------------------------
.SUBCKT LQP02HQ0N7W02 port1 port2
C1 port1 port2 4.53e-14
L2 port1 1 9.34e-10
R2 1 port2 2.96e-2
R3 port1 port2 5.41e+3
L4 port1 2 2.62e-8
R4 2 port2 172
L5 port1 3 1.88e-8
R5 3 port2 24.6
L6 port1 4 1.18e-8
R6 4 port2 5.24
.ENDS LQP02HQ0N7W02
*----------------------------------------------------------------------
*----------------------------------------------------------------------
* SPICE Model generated by Murata Manufacturing Co., Ltd.
* Copyright(C) Murata Manufacturing Co., Ltd.
* MURATA P/N : LQP02HQ0N8B02
* Property : L = 0.8[nH]
*----------------------------------------------------------------------
* Applicable Conditions:
*   Frequency Range = 1MHz - 20GHz
*   Temperature = 25 degC
*   DC Bias Current = 0 A
*   Small Signal Operation
*----------------------------------------------------------------------
.SUBCKT LQP02HQ0N8B02 port1 port2
C1 port1 port2 4.53e-14
L2 port1 1 1.12e-9
R2 1 port2 3.55e-2
R3 port1 port2 3.93e+3
L4 port1 2 2.50e-8
R4 2 port2 122
L5 port1 3 1.49e-8
R5 3 port2 12.0
L6 port1 4 2.40e-8
R6 4 port2 5.12
.ENDS LQP02HQ0N8B02
*----------------------------------------------------------------------
*----------------------------------------------------------------------
* SPICE Model generated by Murata Manufacturing Co., Ltd.
* Copyright(C) Murata Manufacturing Co., Ltd.
* MURATA P/N : LQP02HQ0N8C02
* Property : L = 0.8[nH]
*----------------------------------------------------------------------
* Applicable Conditions:
*   Frequency Range = 1MHz - 20GHz
*   Temperature = 25 degC
*   DC Bias Current = 0 A
*   Small Signal Operation
*----------------------------------------------------------------------
.SUBCKT LQP02HQ0N8C02 port1 port2
C1 port1 port2 4.53e-14
L2 port1 1 1.12e-9
R2 1 port2 3.55e-2
R3 port1 port2 3.93e+3
L4 port1 2 2.50e-8
R4 2 port2 122
L5 port1 3 1.49e-8
R5 3 port2 12.0
L6 port1 4 2.40e-8
R6 4 port2 5.12
.ENDS LQP02HQ0N8C02
*----------------------------------------------------------------------
*----------------------------------------------------------------------
* SPICE Model generated by Murata Manufacturing Co., Ltd.
* Copyright(C) Murata Manufacturing Co., Ltd.
* MURATA P/N : LQP02HQ0N8W02
* Property : L = 0.8[nH]
*----------------------------------------------------------------------
* Applicable Conditions:
*   Frequency Range = 1MHz - 20GHz
*   Temperature = 25 degC
*   DC Bias Current = 0 A
*   Small Signal Operation
*----------------------------------------------------------------------
.SUBCKT LQP02HQ0N8W02 port1 port2
C1 port1 port2 4.53e-14
L2 port1 1 1.12e-9
R2 1 port2 3.55e-2
R3 port1 port2 3.93e+3
L4 port1 2 2.50e-8
R4 2 port2 122
L5 port1 3 1.49e-8
R5 3 port2 12.0
L6 port1 4 2.40e-8
R6 4 port2 5.12
.ENDS LQP02HQ0N8W02
*----------------------------------------------------------------------
*----------------------------------------------------------------------
* SPICE Model generated by Murata Manufacturing Co., Ltd.
* Copyright(C) Murata Manufacturing Co., Ltd.
* MURATA P/N : LQP02HQ0N9B02
* Property : L = 0.9[nH]
*----------------------------------------------------------------------
* Applicable Conditions:
*   Frequency Range = 1MHz - 20GHz
*   Temperature = 25 degC
*   DC Bias Current = 0 A
*   Small Signal Operation
*----------------------------------------------------------------------
.SUBCKT LQP02HQ0N9B02 port1 port2
C1 port1 port2 4.85e-14
L2 port1 1 1.20e-9
R2 1 port2 4.47e-2
R3 port1 port2 3.84e+3
L4 port1 2 2.23e-8
R4 2 port2 113
L5 port1 3 1.19e-8
R5 3 port2 9.56
L6 port1 4 9.57e-8
R6 4 port2 1.58
.ENDS LQP02HQ0N9B02
*----------------------------------------------------------------------
*----------------------------------------------------------------------
* SPICE Model generated by Murata Manufacturing Co., Ltd.
* Copyright(C) Murata Manufacturing Co., Ltd.
* MURATA P/N : LQP02HQ0N9C02
* Property : L = 0.9[nH]
*----------------------------------------------------------------------
* Applicable Conditions:
*   Frequency Range = 1MHz - 20GHz
*   Temperature = 25 degC
*   DC Bias Current = 0 A
*   Small Signal Operation
*----------------------------------------------------------------------
.SUBCKT LQP02HQ0N9C02 port1 port2
C1 port1 port2 4.85e-14
L2 port1 1 1.20e-9
R2 1 port2 4.47e-2
R3 port1 port2 3.84e+3
L4 port1 2 2.23e-8
R4 2 port2 113
L5 port1 3 1.19e-8
R5 3 port2 9.56
L6 port1 4 9.57e-8
R6 4 port2 1.58
.ENDS LQP02HQ0N9C02
*----------------------------------------------------------------------
*----------------------------------------------------------------------
* SPICE Model generated by Murata Manufacturing Co., Ltd.
* Copyright(C) Murata Manufacturing Co., Ltd.
* MURATA P/N : LQP02HQ0N9W02
* Property : L = 0.9[nH]
*----------------------------------------------------------------------
* Applicable Conditions:
*   Frequency Range = 1MHz - 20GHz
*   Temperature = 25 degC
*   DC Bias Current = 0 A
*   Small Signal Operation
*----------------------------------------------------------------------
.SUBCKT LQP02HQ0N9W02 port1 port2
C1 port1 port2 4.85e-14
L2 port1 1 1.20e-9
R2 1 port2 4.47e-2
R3 port1 port2 3.84e+3
L4 port1 2 2.23e-8
R4 2 port2 113
L5 port1 3 1.19e-8
R5 3 port2 9.56
L6 port1 4 9.57e-8
R6 4 port2 1.58
.ENDS LQP02HQ0N9W02
*----------------------------------------------------------------------
*----------------------------------------------------------------------
* SPICE Model generated by Murata Manufacturing Co., Ltd.
* Copyright(C) Murata Manufacturing Co., Ltd.
* MURATA P/N : LQP02HQ10NH02
* Property : L = 10[nH]
*----------------------------------------------------------------------
* Applicable Conditions:
*   Frequency Range = 1MHz - 20GHz
*   Temperature = 25 degC
*   DC Bias Current = 0 A
*   Small Signal Operation
*----------------------------------------------------------------------
.SUBCKT LQP02HQ10NH02 port1 port2
C1 port1 port2 6.25e-14
L2 port1 1 1.64e-8
R2 1 port2 8.13e-1
R3 port1 port2 2.11e+4
L4 port1 2 2.39e-7
R4 2 port2 944
L5 port1 3 1.49e-7
R5 3 port2 100
L6 port1 4 3.99e-8
R6 4 port2 1.55
.ENDS LQP02HQ10NH02
*----------------------------------------------------------------------
*----------------------------------------------------------------------
* SPICE Model generated by Murata Manufacturing Co., Ltd.
* Copyright(C) Murata Manufacturing Co., Ltd.
* MURATA P/N : LQP02HQ10NJ02
* Property : L = 10[nH]
*----------------------------------------------------------------------
* Applicable Conditions:
*   Frequency Range = 1MHz - 20GHz
*   Temperature = 25 degC
*   DC Bias Current = 0 A
*   Small Signal Operation
*----------------------------------------------------------------------
.SUBCKT LQP02HQ10NJ02 port1 port2
C1 port1 port2 6.25e-14
L2 port1 1 1.64e-8
R2 1 port2 8.13e-1
R3 port1 port2 2.11e+4
L4 port1 2 2.39e-7
R4 2 port2 944
L5 port1 3 1.49e-7
R5 3 port2 100
L6 port1 4 3.99e-8
R6 4 port2 1.55
.ENDS LQP02HQ10NJ02
*----------------------------------------------------------------------
*----------------------------------------------------------------------
* SPICE Model generated by Murata Manufacturing Co., Ltd.
* Copyright(C) Murata Manufacturing Co., Ltd.
* MURATA P/N : LQP02HQ11NH02
* Property : L = 11[nH]
*----------------------------------------------------------------------
* Applicable Conditions:
*   Frequency Range = 1MHz - 20GHz
*   Temperature = 25 degC
*   DC Bias Current = 0 A
*   Small Signal Operation
*----------------------------------------------------------------------
.SUBCKT LQP02HQ11NH02 port1 port2
C1 port1 port2 5.70e-14
L2 port1 1 1.32e-8
R2 1 port2 4.79e-1
R3 port1 port2 3.05e+4
L4 port1 2 2.34e-7
R4 2 port2 1.04e+3
L5 port1 3 1.19e-7
R5 3 port2 70.9
L6 port1 4 6.33e-6
R6 4 port2 932
.ENDS LQP02HQ11NH02
*----------------------------------------------------------------------
*----------------------------------------------------------------------
* SPICE Model generated by Murata Manufacturing Co., Ltd.
* Copyright(C) Murata Manufacturing Co., Ltd.
* MURATA P/N : LQP02HQ11NJ02
* Property : L = 11[nH]
*----------------------------------------------------------------------
* Applicable Conditions:
*   Frequency Range = 1MHz - 20GHz
*   Temperature = 25 degC
*   DC Bias Current = 0 A
*   Small Signal Operation
*----------------------------------------------------------------------
.SUBCKT LQP02HQ11NJ02 port1 port2
C1 port1 port2 5.70e-14
L2 port1 1 1.32e-8
R2 1 port2 4.79e-1
R3 port1 port2 3.05e+4
L4 port1 2 2.34e-7
R4 2 port2 1.04e+3
L5 port1 3 1.19e-7
R5 3 port2 70.9
L6 port1 4 6.33e-6
R6 4 port2 932
.ENDS LQP02HQ11NJ02
*----------------------------------------------------------------------
*----------------------------------------------------------------------
* SPICE Model generated by Murata Manufacturing Co., Ltd.
* Copyright(C) Murata Manufacturing Co., Ltd.
* MURATA P/N : LQP02HQ12NH02
* Property : L = 12[nH]
*----------------------------------------------------------------------
* Applicable Conditions:
*   Frequency Range = 1MHz - 20GHz
*   Temperature = 25 degC
*   DC Bias Current = 0 A
*   Small Signal Operation
*----------------------------------------------------------------------
.SUBCKT LQP02HQ12NH02 port1 port2
C1 port1 port2 5.44e-14
L2 port1 1 1.48e-8
R2 1 port2 7.25e-1
R3 port1 port2 4.72e+4
L4 port1 2 3.62e-7
R4 2 port2 2.26e+3
L5 port1 3 1.80e-7
R5 3 port2 170
L6 port1 4 2.35e-7
R6 4 port2 18.6
.ENDS LQP02HQ12NH02
*----------------------------------------------------------------------
*----------------------------------------------------------------------
* SPICE Model generated by Murata Manufacturing Co., Ltd.
* Copyright(C) Murata Manufacturing Co., Ltd.
* MURATA P/N : LQP02HQ12NJ02
* Property : L = 12[nH]
*----------------------------------------------------------------------
* Applicable Conditions:
*   Frequency Range = 1MHz - 20GHz
*   Temperature = 25 degC
*   DC Bias Current = 0 A
*   Small Signal Operation
*----------------------------------------------------------------------
.SUBCKT LQP02HQ12NJ02 port1 port2
C1 port1 port2 5.44e-14
L2 port1 1 1.48e-8
R2 1 port2 7.25e-1
R3 port1 port2 4.72e+4
L4 port1 2 3.62e-7
R4 2 port2 2.26e+3
L5 port1 3 1.80e-7
R5 3 port2 170
L6 port1 4 2.35e-7
R6 4 port2 18.6
.ENDS LQP02HQ12NJ02
*----------------------------------------------------------------------
*----------------------------------------------------------------------
* SPICE Model generated by Murata Manufacturing Co., Ltd.
* Copyright(C) Murata Manufacturing Co., Ltd.
* MURATA P/N : LQP02HQ13NH02
* Property : L = 13[nH]
*----------------------------------------------------------------------
* Applicable Conditions:
*   Frequency Range = 1MHz - 20GHz
*   Temperature = 25 degC
*   DC Bias Current = 0 A
*   Small Signal Operation
*----------------------------------------------------------------------
.SUBCKT LQP02HQ13NH02 port1 port2
C1 port1 port2 5.57e-14
L2 port1 1 1.59e-8
R2 1 port2 7.25e-1
R3 port1 port2 3.34e+4
L4 port1 2 5.35e-7
R4 2 port2 3.35e+3
L5 port1 3 2.11e-7
R5 3 port2 276
L6 port1 4 2.35e-7
R6 4 port2 32.3
.ENDS LQP02HQ13NH02
*----------------------------------------------------------------------
*----------------------------------------------------------------------
* SPICE Model generated by Murata Manufacturing Co., Ltd.
* Copyright(C) Murata Manufacturing Co., Ltd.
* MURATA P/N : LQP02HQ13NJ02
* Property : L = 13[nH]
*----------------------------------------------------------------------
* Applicable Conditions:
*   Frequency Range = 1MHz - 20GHz
*   Temperature = 25 degC
*   DC Bias Current = 0 A
*   Small Signal Operation
*----------------------------------------------------------------------
.SUBCKT LQP02HQ13NJ02 port1 port2
C1 port1 port2 5.57e-14
L2 port1 1 1.59e-8
R2 1 port2 7.25e-1
R3 port1 port2 3.34e+4
L4 port1 2 5.35e-7
R4 2 port2 3.35e+3
L5 port1 3 2.11e-7
R5 3 port2 276
L6 port1 4 2.35e-7
R6 4 port2 32.3
.ENDS LQP02HQ13NJ02
*----------------------------------------------------------------------
*----------------------------------------------------------------------
* SPICE Model generated by Murata Manufacturing Co., Ltd.
* Copyright(C) Murata Manufacturing Co., Ltd.
* MURATA P/N : LQP02HQ15NH02
* Property : L = 15[nH]
*----------------------------------------------------------------------
* Applicable Conditions:
*   Frequency Range = 1MHz - 20GHz
*   Temperature = 25 degC
*   DC Bias Current = 0 A
*   Small Signal Operation
*----------------------------------------------------------------------
.SUBCKT LQP02HQ15NH02 port1 port2
C1 port1 port2 5.70e-14
L2 port1 1 1.77e-8
R2 1 port2 8.52e-1
R3 port1 port2 3.34e+4
L4 port1 2 3.22e-7
R4 2 port2 1.22e+3
L5 port1 3 2.31e-7
R5 3 port2 155
L6 port1 4 1.78e-6
R6 4 port2 22.9
L7 port1 5 1.73e-8
C7 5 6 4.09e-15
R7 6 port2 64.4
.ENDS LQP02HQ15NH02
*----------------------------------------------------------------------
*----------------------------------------------------------------------
* SPICE Model generated by Murata Manufacturing Co., Ltd.
* Copyright(C) Murata Manufacturing Co., Ltd.
* MURATA P/N : LQP02HQ15NJ02
* Property : L = 15[nH]
*----------------------------------------------------------------------
* Applicable Conditions:
*   Frequency Range = 1MHz - 20GHz
*   Temperature = 25 degC
*   DC Bias Current = 0 A
*   Small Signal Operation
*----------------------------------------------------------------------
.SUBCKT LQP02HQ15NJ02 port1 port2
C1 port1 port2 5.70e-14
L2 port1 1 1.77e-8
R2 1 port2 8.52e-1
R3 port1 port2 3.34e+4
L4 port1 2 3.22e-7
R4 2 port2 1.22e+3
L5 port1 3 2.31e-7
R5 3 port2 155
L6 port1 4 1.78e-6
R6 4 port2 22.9
L7 port1 5 1.73e-8
C7 5 6 4.09e-15
R7 6 port2 64.4
.ENDS LQP02HQ15NJ02
*----------------------------------------------------------------------
*----------------------------------------------------------------------
* SPICE Model generated by Murata Manufacturing Co., Ltd.
* Copyright(C) Murata Manufacturing Co., Ltd.
* MURATA P/N : LQP02HQ16NH02
* Property : L = 16[nH]
*----------------------------------------------------------------------
* Applicable Conditions:
*   Frequency Range = 1MHz - 20GHz
*   Temperature = 25 degC
*   DC Bias Current = 0 A
*   Small Signal Operation
*----------------------------------------------------------------------
.SUBCKT LQP02HQ16NH02 port1 port2
C1 port1 port2 4.97e-14
L2 port1 1 1.82e-8
R2 1 port2 8.92e-1
R3 port1 port2 6.98e+4
L4 port1 2 4.25e-7
R4 2 port2 2.60e+3
L5 port1 3 2.60e-7
R5 3 port2 258
L6 port1 4 2.46e-6
R6 4 port2 889
L7 port1 5 6.00e-9
C7 5 6 1.07e-14
R7 6 port2 48.1
.ENDS LQP02HQ16NH02
*----------------------------------------------------------------------
*----------------------------------------------------------------------
* SPICE Model generated by Murata Manufacturing Co., Ltd.
* Copyright(C) Murata Manufacturing Co., Ltd.
* MURATA P/N : LQP02HQ16NJ02
* Property : L = 16[nH]
*----------------------------------------------------------------------
* Applicable Conditions:
*   Frequency Range = 1MHz - 20GHz
*   Temperature = 25 degC
*   DC Bias Current = 0 A
*   Small Signal Operation
*----------------------------------------------------------------------
.SUBCKT LQP02HQ16NJ02 port1 port2
C1 port1 port2 4.97e-14
L2 port1 1 1.82e-8
R2 1 port2 8.92e-1
R3 port1 port2 6.98e+4
L4 port1 2 4.25e-7
R4 2 port2 2.60e+3
L5 port1 3 2.60e-7
R5 3 port2 258
L6 port1 4 2.46e-6
R6 4 port2 889
L7 port1 5 6.00e-9
C7 5 6 1.07e-14
R7 6 port2 48.1
.ENDS LQP02HQ16NJ02
*----------------------------------------------------------------------
*----------------------------------------------------------------------
* SPICE Model generated by Murata Manufacturing Co., Ltd.
* Copyright(C) Murata Manufacturing Co., Ltd.
* MURATA P/N : LQP02HQ18NH02
* Property : L = 18[nH]
*----------------------------------------------------------------------
* Applicable Conditions:
*   Frequency Range = 1MHz - 20GHz
*   Temperature = 25 degC
*   DC Bias Current = 0 A
*   Small Signal Operation
*----------------------------------------------------------------------
.SUBCKT LQP02HQ18NH02 port1 port2
C1 port1 port2 4.74e-14
L2 port1 1 2.29e-8
R2 1 port2 1.74
R3 port1 port2 6.22e+4
L4 port1 2 6.14e-7
R4 2 port2 4.03e+3
L5 port1 3 4.51e-7
R5 3 port2 551
L6 port1 4 2.00e-7
R6 4 port2 12.3
L7 port1 5 5.11e-9
C7 5 6 1.51e-14
R7 6 port2 36.5
.ENDS LQP02HQ18NH02
*----------------------------------------------------------------------
*----------------------------------------------------------------------
* SPICE Model generated by Murata Manufacturing Co., Ltd.
* Copyright(C) Murata Manufacturing Co., Ltd.
* MURATA P/N : LQP02HQ18NJ02
* Property : L = 18[nH]
*----------------------------------------------------------------------
* Applicable Conditions:
*   Frequency Range = 1MHz - 20GHz
*   Temperature = 25 degC
*   DC Bias Current = 0 A
*   Small Signal Operation
*----------------------------------------------------------------------
.SUBCKT LQP02HQ18NJ02 port1 port2
C1 port1 port2 4.74e-14
L2 port1 1 2.29e-8
R2 1 port2 1.74
R3 port1 port2 6.22e+4
L4 port1 2 6.14e-7
R4 2 port2 4.03e+3
L5 port1 3 4.51e-7
R5 3 port2 551
L6 port1 4 2.00e-7
R6 4 port2 12.3
L7 port1 5 5.11e-9
C7 5 6 1.51e-14
R7 6 port2 36.5
.ENDS LQP02HQ18NJ02
*----------------------------------------------------------------------
*----------------------------------------------------------------------
* SPICE Model generated by Murata Manufacturing Co., Ltd.
* Copyright(C) Murata Manufacturing Co., Ltd.
* MURATA P/N : LQP02HQ1N0B02
* Property : L = 1[nH]
*----------------------------------------------------------------------
* Applicable Conditions:
*   Frequency Range = 1MHz - 20GHz
*   Temperature = 25 degC
*   DC Bias Current = 0 A
*   Small Signal Operation
*----------------------------------------------------------------------
.SUBCKT LQP02HQ1N0B02 port1 port2
C1 port1 port2 5.44e-14
L2 port1 1 1.26e-9
R2 1 port2 5.25e-2
R3 port1 port2 4.02e+3
L4 port1 2 3.54e-8
R4 2 port2 193
L5 port1 3 1.42e-8
R5 3 port2 16.6
L6 port1 4 1.52e-7
R6 4 port2 1.99
.ENDS LQP02HQ1N0B02
*----------------------------------------------------------------------
*----------------------------------------------------------------------
* SPICE Model generated by Murata Manufacturing Co., Ltd.
* Copyright(C) Murata Manufacturing Co., Ltd.
* MURATA P/N : LQP02HQ1N0C02
* Property : L = 1[nH]
*----------------------------------------------------------------------
* Applicable Conditions:
*   Frequency Range = 1MHz - 20GHz
*   Temperature = 25 degC
*   DC Bias Current = 0 A
*   Small Signal Operation
*----------------------------------------------------------------------
.SUBCKT LQP02HQ1N0C02 port1 port2
C1 port1 port2 5.44e-14
L2 port1 1 1.26e-9
R2 1 port2 5.25e-2
R3 port1 port2 4.02e+3
L4 port1 2 3.54e-8
R4 2 port2 193
L5 port1 3 1.42e-8
R5 3 port2 16.6
L6 port1 4 1.52e-7
R6 4 port2 1.99
.ENDS LQP02HQ1N0C02
*----------------------------------------------------------------------
*----------------------------------------------------------------------
* SPICE Model generated by Murata Manufacturing Co., Ltd.
* Copyright(C) Murata Manufacturing Co., Ltd.
* MURATA P/N : LQP02HQ1N0W02
* Property : L = 1[nH]
*----------------------------------------------------------------------
* Applicable Conditions:
*   Frequency Range = 1MHz - 20GHz
*   Temperature = 25 degC
*   DC Bias Current = 0 A
*   Small Signal Operation
*----------------------------------------------------------------------
.SUBCKT LQP02HQ1N0W02 port1 port2
C1 port1 port2 5.44e-14
L2 port1 1 1.26e-9
R2 1 port2 5.25e-2
R3 port1 port2 4.02e+3
L4 port1 2 3.54e-8
R4 2 port2 193
L5 port1 3 1.42e-8
R5 3 port2 16.6
L6 port1 4 1.52e-7
R6 4 port2 1.99
.ENDS LQP02HQ1N0W02
*----------------------------------------------------------------------
*----------------------------------------------------------------------
* SPICE Model generated by Murata Manufacturing Co., Ltd.
* Copyright(C) Murata Manufacturing Co., Ltd.
* MURATA P/N : LQP02HQ1N1B02
* Property : L = 1.1[nH]
*----------------------------------------------------------------------
* Applicable Conditions:
*   Frequency Range = 1MHz - 20GHz
*   Temperature = 25 degC
*   DC Bias Current = 0 A
*   Small Signal Operation
*----------------------------------------------------------------------
.SUBCKT LQP02HQ1N1B02 port1 port2
C1 port1 port2 7.18e-14
L2 port1 1 1.38e-9
R2 1 port2 5.02e-2
R3 port1 port2 4.11e+3
L4 port1 2 3.22e-8
R4 2 port2 143