*----------------------------------------------------------------------
* SPICE Model generated by Murata Manufacturing Co., Ltd.
* Copyright(C) Murata Manufacturing Co., Ltd.
* MURATA P/N : LQP03TG0N1B02
* Property : L = 0.1[nH]
*----------------------------------------------------------------------
* Applicable Conditions:
*   Frequency Range = 1MHz - 20GHz
*   Temperature = 25 degC
*   DC Bias Current = 0 A
*   Small Signal Operation
*----------------------------------------------------------------------
.SUBCKT LQP03TG0N1B02 port1 port2
C1 port1 port2 1.00e-15
L2 port1 1 2.70e-10
R2 1 port2 8.00e-3
R3 port1 port2 1.00e+3
L4 port1 2 1.80e-8
R4 2 port2 75.0
L5 port1 3 2.00e-7
R5 3 port2 2.00e+3
L6 port1 4 4.40e-8
R6 4 port2 35.0
L7 port1 5 5.00e-9
C7 5 6 7.60e-15
R7 6 port2 1.00e-1
.ENDS LQP03TG0N1B02
*----------------------------------------------------------------------
*----------------------------------------------------------------------
* SPICE Model generated by Murata Manufacturing Co., Ltd.
* Copyright(C) Murata Manufacturing Co., Ltd.
* MURATA P/N : LQP03TG0N2B02
* Property : L = 0.2[nH]
*----------------------------------------------------------------------
* Applicable Conditions:
*   Frequency Range = 1MHz - 20GHz
*   Temperature = 25 degC
*   DC Bias Current = 0 A
*   Small Signal Operation
*----------------------------------------------------------------------
.SUBCKT LQP03TG0N2B02 port1 port2
C1 port1 port2 1.00e-15
L2 port1 1 3.70e-10
R2 1 port2 1.10e-2
R3 port1 port2 1.00e+3
L4 port1 2 1.40e-8
R4 2 port2 75.0
L5 port1 3 2.00e-7
R5 3 port2 2.00e+3
L6 port1 4 4.40e-8
R6 4 port2 35.0
L7 port1 5 5.00e-9
C7 5 6 7.60e-15
R7 6 port2 1.00e-1
.ENDS LQP03TG0N2B02
*----------------------------------------------------------------------
*----------------------------------------------------------------------
* SPICE Model generated by Murata Manufacturing Co., Ltd.
* Copyright(C) Murata Manufacturing Co., Ltd.
* MURATA P/N : LQP03TG0N2C02
* Property : L = 0.2[nH]
*----------------------------------------------------------------------
* Applicable Conditions:
*   Frequency Range = 1MHz - 20GHz
*   Temperature = 25 degC
*   DC Bias Current = 0 A
*   Small Signal Operation
*----------------------------------------------------------------------
.SUBCKT LQP03TG0N2C02 port1 port2
C1 port1 port2 1.00e-15
L2 port1 1 3.70e-10
R2 1 port2 1.10e-2
R3 port1 port2 1.00e+3
L4 port1 2 1.40e-8
R4 2 port2 75.0
L5 port1 3 2.00e-7
R5 3 port2 2.00e+3
L6 port1 4 4.40e-8
R6 4 port2 35.0
L7 port1 5 5.00e-9
C7 5 6 7.60e-15
R7 6 port2 1.00e-1
.ENDS LQP03TG0N2C02
*----------------------------------------------------------------------
*----------------------------------------------------------------------
* SPICE Model generated by Murata Manufacturing Co., Ltd.
* Copyright(C) Murata Manufacturing Co., Ltd.
* MURATA P/N : LQP03TG0N3B02
* Property : L = 0.3[nH]
*----------------------------------------------------------------------
* Applicable Conditions:
*   Frequency Range = 1MHz - 20GHz
*   Temperature = 25 degC
*   DC Bias Current = 0 A
*   Small Signal Operation
*----------------------------------------------------------------------
.SUBCKT LQP03TG0N3B02 port1 port2
C1 port1 port2 1.00e-15
L2 port1 1 4.80e-10
R2 1 port2 2.10e-2
R3 port1 port2 1.10e+3
L4 port1 2 1.60e-8
R4 2 port2 75.0
L5 port1 3 2.00e-7
R5 3 port2 2.00e+3
L6 port1 4 4.40e-8
R6 4 port2 35.0
L7 port1 5 5.00e-9
C7 5 6 7.60e-15
R7 6 port2 1.00e-1
.ENDS LQP03TG0N3B02
*----------------------------------------------------------------------
*----------------------------------------------------------------------
* SPICE Model generated by Murata Manufacturing Co., Ltd.
* Copyright(C) Murata Manufacturing Co., Ltd.
* MURATA P/N : LQP03TG0N3C02
* Property : L = 0.3[nH]
*----------------------------------------------------------------------
* Applicable Conditions:
*   Frequency Range = 1MHz - 20GHz
*   Temperature = 25 degC
*   DC Bias Current = 0 A
*   Small Signal Operation
*----------------------------------------------------------------------
.SUBCKT LQP03TG0N3C02 port1 port2
C1 port1 port2 1.00e-15
L2 port1 1 4.80e-10
R2 1 port2 2.10e-2
R3 port1 port2 1.10e+3
L4 port1 2 1.60e-8
R4 2 port2 75.0
L5 port1 3 2.00e-7
R5 3 port2 2.00e+3
L6 port1 4 4.40e-8
R6 4 port2 35.0
L7 port1 5 5.00e-9
C7 5 6 7.60e-15
R7 6 port2 1.00e-1
.ENDS LQP03TG0N3C02
*----------------------------------------------------------------------
*----------------------------------------------------------------------
* SPICE Model generated by Murata Manufacturing Co., Ltd.
* Copyright(C) Murata Manufacturing Co., Ltd.
* MURATA P/N : LQP03TG0N4B02
* Property : L = 0.4[nH]
*----------------------------------------------------------------------
* Applicable Conditions:
*   Frequency Range = 1MHz - 20GHz
*   Temperature = 25 degC
*   DC Bias Current = 0 A
*   Small Signal Operation
*----------------------------------------------------------------------
.SUBCKT LQP03TG0N4B02 port1 port2
C1 port1 port2 1.00e-15
L2 port1 1 5.90e-10
R2 1 port2 5.30e-2
R3 port1 port2 1.20e+3
L4 port1 2 1.40e-8
R4 2 port2 75.0
L5 port1 3 2.00e-7
R5 3 port2 2.00e+3
L6 port1 4 4.40e-8
R6 4 port2 35.0
L7 port1 5 5.00e-9
C7 5 6 7.60e-15
R7 6 port2 1.00e-1
.ENDS LQP03TG0N4B02
*----------------------------------------------------------------------
*----------------------------------------------------------------------
* SPICE Model generated by Murata Manufacturing Co., Ltd.
* Copyright(C) Murata Manufacturing Co., Ltd.
* MURATA P/N : LQP03TG0N4C02
* Property : L = 0.4[nH]
*----------------------------------------------------------------------
* Applicable Conditions:
*   Frequency Range = 1MHz - 20GHz
*   Temperature = 25 degC
*   DC Bias Current = 0 A
*   Small Signal Operation
*----------------------------------------------------------------------
.SUBCKT LQP03TG0N4C02 port1 port2
C1 port1 port2 1.00e-15
L2 port1 1 5.90e-10
R2 1 port2 5.30e-2
R3 port1 port2 1.20e+3
L4 port1 2 1.40e-8
R4 2 port2 75.0
L5 port1 3 2.00e-7
R5 3 port2 2.00e+3
L6 port1 4 4.40e-8
R6 4 port2 35.0
L7 port1 5 5.00e-9
C7 5 6 7.60e-15
R7 6 port2 1.00e-1
.ENDS LQP03TG0N4C02
*----------------------------------------------------------------------
*----------------------------------------------------------------------
* SPICE Model generated by Murata Manufacturing Co., Ltd.
* Copyright(C) Murata Manufacturing Co., Ltd.
* MURATA P/N : LQP03TG0N5B02
* Property : L = 0.5[nH]
*----------------------------------------------------------------------
* Applicable Conditions:
*   Frequency Range = 1MHz - 20GHz
*   Temperature = 25 degC
*   DC Bias Current = 0 A
*   Small Signal Operation
*----------------------------------------------------------------------
.SUBCKT LQP03TG0N5B02 port1 port2
C1 port1 port2 1.00e-14
L2 port1 1 7.00e-10
R2 1 port2 4.30e-2
R3 port1 port2 1.30e+3
L4 port1 2 1.80e-8
R4 2 port2 75.0
L5 port1 3 2.00e-7
R5 3 port2 2.00e+3
L6 port1 4 4.40e-8
R6 4 port2 35.0
L7 port1 5 5.00e-9
C7 5 6 7.60e-15
R7 6 port2 1.00e-1
.ENDS LQP03TG0N5B02
*----------------------------------------------------------------------
*----------------------------------------------------------------------
* SPICE Model generated by Murata Manufacturing Co., Ltd.
* Copyright(C) Murata Manufacturing Co., Ltd.
* MURATA P/N : LQP03TG0N5C02
* Property : L = 0.5[nH]
*----------------------------------------------------------------------
* Applicable Conditions:
*   Frequency Range = 1MHz - 20GHz
*   Temperature = 25 degC
*   DC Bias Current = 0 A
*   Small Signal Operation
*----------------------------------------------------------------------
.SUBCKT LQP03TG0N5C02 port1 port2
C1 port1 port2 1.00e-14
L2 port1 1 7.00e-10
R2 1 port2 4.30e-2
R3 port1 port2 1.30e+3
L4 port1 2 1.80e-8
R4 2 port2 75.0
L5 port1 3 2.00e-7
R5 3 port2 2.00e+3
L6 port1 4 4.40e-8
R6 4 port2 35.0
L7 port1 5 5.00e-9
C7 5 6 7.60e-15
R7 6 port2 1.00e-1
.ENDS LQP03TG0N5C02
*----------------------------------------------------------------------
*----------------------------------------------------------------------
* SPICE Model generated by Murata Manufacturing Co., Ltd.
* Copyright(C) Murata Manufacturing Co., Ltd.
* MURATA P/N : LQP03TG0N6B02
* Property : L = 0.6[nH]
*----------------------------------------------------------------------
* Applicable Conditions:
*   Frequency Range = 1MHz - 20GHz
*   Temperature = 25 degC
*   DC Bias Current = 0 A
*   Small Signal Operation
*----------------------------------------------------------------------
.SUBCKT LQP03TG0N6B02 port1 port2
C1 port1 port2 2.50e-14
L2 port1 1 8.20e-10
R2 1 port2 5.00e-2
R3 port1 port2 3.00e+3
L4 port1 2 5.00e-8
R4 2 port2 1.00e+3
L5 port1 3 1.00e-7
R5 3 port2 300
L6 port1 4 8.00e-9
R6 4 port2 11.0
.ENDS LQP03TG0N6B02
*----------------------------------------------------------------------
*----------------------------------------------------------------------
* SPICE Model generated by Murata Manufacturing Co., Ltd.
* Copyright(C) Murata Manufacturing Co., Ltd.
* MURATA P/N : LQP03TG0N6C02
* Property : L = 0.6[nH]
*----------------------------------------------------------------------
* Applicable Conditions:
*   Frequency Range = 1MHz - 20GHz
*   Temperature = 25 degC
*   DC Bias Current = 0 A
*   Small Signal Operation
*----------------------------------------------------------------------
.SUBCKT LQP03TG0N6C02 port1 port2
C1 port1 port2 2.50e-14
L2 port1 1 8.20e-10
R2 1 port2 5.00e-2
R3 port1 port2 3.00e+3
L4 port1 2 5.00e-8
R4 2 port2 1.00e+3
L5 port1 3 1.00e-7
R5 3 port2 300
L6 port1 4 8.00e-9
R6 4 port2 11.0
.ENDS LQP03TG0N6C02
*----------------------------------------------------------------------
*----------------------------------------------------------------------
* SPICE Model generated by Murata Manufacturing Co., Ltd.
* Copyright(C) Murata Manufacturing Co., Ltd.
* MURATA P/N : LQP03TG0N7B02
* Property : L = 0.7[nH]
*----------------------------------------------------------------------
* Applicable Conditions:
*   Frequency Range = 1MHz - 20GHz
*   Temperature = 25 degC
*   DC Bias Current = 0 A
*   Small Signal Operation
*----------------------------------------------------------------------
.SUBCKT LQP03TG0N7B02 port1 port2
C1 port1 port2 2.50e-14
L2 port1 1 9.40e-10
R2 1 port2 5.00e-2
R3 port1 port2 3.20e+3
L4 port1 2 5.50e-8
R4 2 port2 1.00e+3
L5 port1 3 1.00e-7
R5 3 port2 300
L6 port1 4 9.00e-9
R6 4 port2 11.0
.ENDS LQP03TG0N7B02
*----------------------------------------------------------------------
*----------------------------------------------------------------------
* SPICE Model generated by Murata Manufacturing Co., Ltd.
* Copyright(C) Murata Manufacturing Co., Ltd.
* MURATA P/N : LQP03TG0N7C02
* Property : L = 0.7[nH]
*----------------------------------------------------------------------
* Applicable Conditions:
*   Frequency Range = 1MHz - 20GHz
*   Temperature = 25 degC
*   DC Bias Current = 0 A
*   Small Signal Operation
*----------------------------------------------------------------------
.SUBCKT LQP03TG0N7C02 port1 port2
C1 port1 port2 2.50e-14
L2 port1 1 9.40e-10
R2 1 port2 5.00e-2
R3 port1 port2 3.20e+3
L4 port1 2 5.50e-8
R4 2 port2 1.00e+3
L5 port1 3 1.00e-7
R5 3 port2 300
L6 port1 4 9.00e-9
R6 4 port2 11.0
.ENDS LQP03TG0N7C02
*----------------------------------------------------------------------
*----------------------------------------------------------------------
* SPICE Model generated by Murata Manufacturing Co., Ltd.
* Copyright(C) Murata Manufacturing Co., Ltd.
* MURATA P/N : LQP03TG0N8B02
* Property : L = 0.8[nH]
*----------------------------------------------------------------------
* Applicable Conditions:
*   Frequency Range = 1MHz - 20GHz
*   Temperature = 25 degC
*   DC Bias Current = 0 A
*   Small Signal Operation
*----------------------------------------------------------------------
.SUBCKT LQP03TG0N8B02 port1 port2
C1 port1 port2 3.00e-14
L2 port1 1 1.07e-9
R2 1 port2 6.00e-2
R3 port1 port2 4.00e+3
L4 port1 2 5.50e-8
R4 2 port2 1.00e+3
L5 port1 3 1.00e-7
R5 3 port2 300
L6 port1 4 9.00e-9
R6 4 port2 11.0
.ENDS LQP03TG0N8B02
*----------------------------------------------------------------------
*----------------------------------------------------------------------
* SPICE Model generated by Murata Manufacturing Co., Ltd.
* Copyright(C) Murata Manufacturing Co., Ltd.
* MURATA P/N : LQP03TG0N8C02
* Property : L = 0.8[nH]
*----------------------------------------------------------------------
* Applicable Conditions:
*   Frequency Range = 1MHz - 20GHz
*   Temperature = 25 degC
*   DC Bias Current = 0 A
*   Small Signal Operation
*----------------------------------------------------------------------
.SUBCKT LQP03TG0N8C02 port1 port2
C1 port1 port2 3.00e-14
L2 port1 1 1.07e-9
R2 1 port2 6.00e-2
R3 port1 port2 4.00e+3
L4 port1 2 5.50e-8
R4 2 port2 1.00e+3
L5 port1 3 1.00e-7
R5 3 port2 300
L6 port1 4 9.00e-9
R6 4 port2 11.0
.ENDS LQP03TG0N8C02
*----------------------------------------------------------------------
*----------------------------------------------------------------------
* SPICE Model generated by Murata Manufacturing Co., Ltd.
* Copyright(C) Murata Manufacturing Co., Ltd.
* MURATA P/N : LQP03TG0N9B02
* Property : L = 0.9[nH]
*----------------------------------------------------------------------
* Applicable Conditions:
*   Frequency Range = 1MHz - 20GHz
*   Temperature = 25 degC
*   DC Bias Current = 0 A
*   Small Signal Operation
*----------------------------------------------------------------------
.SUBCKT LQP03TG0N9B02 port1 port2
C1 port1 port2 3.00e-14
L2 port1 1 1.17e-9
R2 1 port2 9.00e-2
R3 port1 port2 3.50e+3
L4 port1 2 5.50e-8
R4 2 port2 1.00e+3
L5 port1 3 1.00e-7
R5 3 port2 300
L6 port1 4 1.10e-8
R6 4 port2 11.0
.ENDS LQP03TG0N9B02
*----------------------------------------------------------------------
*----------------------------------------------------------------------
* SPICE Model generated by Murata Manufacturing Co., Ltd.
* Copyright(C) Murata Manufacturing Co., Ltd.
* MURATA P/N : LQP03TG0N9C02
* Property : L = 0.9[nH]
*----------------------------------------------------------------------
* Applicable Conditions:
*   Frequency Range = 1MHz - 20GHz
*   Temperature = 25 degC
*   DC Bias Current = 0 A
*   Small Signal Operation
*----------------------------------------------------------------------
.SUBCKT LQP03TG0N9C02 port1 port2
C1 port1 port2 3.00e-14
L2 port1 1 1.17e-9
R2 1 port2 9.00e-2
R3 port1 port2 3.50e+3
L4 port1 2 5.50e-8
R4 2 port2 1.00e+3
L5 port1 3 1.00e-7
R5 3 port2 300
L6 port1 4 1.10e-8
R6 4 port2 11.0
.ENDS LQP03TG0N9C02
*----------------------------------------------------------------------
*----------------------------------------------------------------------
* SPICE Model generated by Murata Manufacturing Co., Ltd.
* Copyright(C) Murata Manufacturing Co., Ltd.
* MURATA P/N : LQP03TG10NH02
* Property : L = 10[nH]
*----------------------------------------------------------------------
* Applicable Conditions:
*   Frequency Range = 1MHz - 20GHz
*   Temperature = 25 degC
*   DC Bias Current = 0 A
*   Small Signal Operation
*----------------------------------------------------------------------
.SUBCKT LQP03TG10NH02 port1 port2
C1 port1 port2 9.60e-14
L2 port1 1 1.10e-8
R2 1 port2 9.80e-1
R3 port1 port2 7.00e+3
L4 port1 2 3.00e-7
R4 2 port2 1.20e+3
L5 port1 3 4.00e-7
R5 3 port2 1.08e+3
L6 port1 4 1.58e-7
R6 4 port2 80.0
.ENDS LQP03TG10NH02
*----------------------------------------------------------------------
*----------------------------------------------------------------------
* SPICE Model generated by Murata Manufacturing Co., Ltd.
* Copyright(C) Murata Manufacturing Co., Ltd.
* MURATA P/N : LQP03TG10NJ02
* Property : L = 10[nH]
*----------------------------------------------------------------------
* Applicable Conditions:
*   Frequency Range = 1MHz - 20GHz
*   Temperature = 25 degC
*   DC Bias Current = 0 A
*   Small Signal Operation
*----------------------------------------------------------------------
.SUBCKT LQP03TG10NJ02 port1 port2
C1 port1 port2 9.60e-14
L2 port1 1 1.10e-8
R2 1 port2 9.80e-1
R3 port1 port2 7.00e+3
L4 port1 2 3.00e-7
R4 2 port2 1.20e+3
L5 port1 3 4.00e-7
R5 3 port2 1.08e+3
L6 port1 4 1.58e-7
R6 4 port2 80.0
.ENDS LQP03TG10NJ02
*----------------------------------------------------------------------
*----------------------------------------------------------------------
* SPICE Model generated by Murata Manufacturing Co., Ltd.
* Copyright(C) Murata Manufacturing Co., Ltd.
* MURATA P/N : LQP03TG11NH02
* Property : L = 11[nH]
*----------------------------------------------------------------------
* Applicable Conditions:
*   Frequency Range = 1MHz - 20GHz
*   Temperature = 25 degC
*   DC Bias Current = 0 A
*   Small Signal Operation
*----------------------------------------------------------------------
.SUBCKT LQP03TG11NH02 port1 port2
C1 port1 port2 4.14e-14
L2 port1 1 1.80e-8
R2 1 port2 1.55
R3 port1 port2 1.42e+4
L4 port1 2 1.73e-7
R4 2 port2 610
L5 port1 3 1.68e-7
R5 3 port2 60.4
L6 port1 4 3.90e-8
R6 4 port2 3.79
L7 port1 5 1.05e-9
C7 5 6 5.58e-14
R7 6 port2 13.3
.ENDS LQP03TG11NH02
*----------------------------------------------------------------------
*----------------------------------------------------------------------
* SPICE Model generated by Murata Manufacturing Co., Ltd.
* Copyright(C) Murata Manufacturing Co., Ltd.
* MURATA P/N : LQP03TG11NJ02
* Property : L = 11[nH]
*----------------------------------------------------------------------
* Applicable Conditions:
*   Frequency Range = 1MHz - 20GHz
*   Temperature = 25 degC
*   DC Bias Current = 0 A
*   Small Signal Operation
*----------------------------------------------------------------------
.SUBCKT LQP03TG11NJ02 port1 port2
C1 port1 port2 4.14e-14
L2 port1 1 1.80e-8
R2 1 port2 1.55
R3 port1 port2 1.42e+4
L4 port1 2 1.73e-7
R4 2 port2 610
L5 port1 3 1.68e-7
R5 3 port2 60.4
L6 port1 4 3.90e-8
R6 4 port2 3.79
L7 port1 5 1.05e-9
C7 5 6 5.58e-14
R7 6 port2 13.3
.ENDS LQP03TG11NJ02
*----------------------------------------------------------------------
*----------------------------------------------------------------------
* SPICE Model generated by Murata Manufacturing Co., Ltd.
* Copyright(C) Murata Manufacturing Co., Ltd.
* MURATA P/N : LQP03TG12NH02
* Property : L = 12[nH]
*----------------------------------------------------------------------
* Applicable Conditions:
*   Frequency Range = 1MHz - 20GHz
*   Temperature = 25 degC
*   DC Bias Current = 0 A
*   Small Signal Operation
*----------------------------------------------------------------------
.SUBCKT LQP03TG12NH02 port1 port2
C1 port1 port2 1.14e-13
L2 port1 1 1.33e-8
R2 1 port2 1.10
R3 port1 port2 7.00e+3
L4 port1 2 3.50e-7
R4 2 port2 1.00e+3
L5 port1 3 4.20e-7
R5 3 port2 1.00e+3
L6 port1 4 1.90e-7
R6 4 port2 60.0
.ENDS LQP03TG12NH02
*----------------------------------------------------------------------
*----------------------------------------------------------------------
* SPICE Model generated by Murata Manufacturing Co., Ltd.
* Copyright(C) Murata Manufacturing Co., Ltd.
* MURATA P/N : LQP03TG12NJ02
* Property : L = 12[nH]
*----------------------------------------------------------------------
* Applicable Conditions:
*   Frequency Range = 1MHz - 20GHz
*   Temperature = 25 degC
*   DC Bias Current = 0 A
*   Small Signal Operation
*----------------------------------------------------------------------
.SUBCKT LQP03TG12NJ02 port1 port2
C1 port1 port2 1.14e-13
L2 port1 1 1.33e-8
R2 1 port2 1.10
R3 port1 port2 7.00e+3
L4 port1 2 3.50e-7
R4 2 port2 1.00e+3
L5 port1 3 4.20e-7
R5 3 port2 1.00e+3
L6 port1 4 1.90e-7
R6 4 port2 60.0
.ENDS LQP03TG12NJ02
*----------------------------------------------------------------------
*----------------------------------------------------------------------
* SPICE Model generated by Murata Manufacturing Co., Ltd.
* Copyright(C) Murata Manufacturing Co., Ltd.
* MURATA P/N : LQP03TG13NH02
* Property : L = 13[nH]
*----------------------------------------------------------------------
* Applicable Conditions:
*   Frequency Range = 1MHz - 20GHz
*   Temperature = 25 degC
*   DC Bias Current = 0 A
*   Small Signal Operation
*----------------------------------------------------------------------
.SUBCKT LQP03TG13NH02 port1 port2
C1 port1 port2 9.24e-16
L2 port1 1 1.44e-8
R2 1 port2 1.07
R3 port1 port2 1.30e+4
L4 port1 2 3.30e-7
R4 2 port2 1.60e+3
L5 port1 3 3.67e-7
R5 3 port2 693
L6 port1 4 1.55e-7
R6 4 port2 56.1
L7 port1 5 5.96e-10
C7 5 6 1.24e-13
R7 6 port2 3.75
.ENDS LQP03TG13NH02
*----------------------------------------------------------------------
*----------------------------------------------------------------------
* SPICE Model generated by Murata Manufacturing Co., Ltd.
* Copyright(C) Murata Manufacturing Co., Ltd.
* MURATA P/N : LQP03TG13NJ02
* Property : L = 13[nH]
*----------------------------------------------------------------------
* Applicable Conditions:
*   Frequency Range = 1MHz - 20GHz
*   Temperature = 25 degC
*   DC Bias Current = 0 A
*   Small Signal Operation
*----------------------------------------------------------------------
.SUBCKT LQP03TG13NJ02 port1 port2
C1 port1 port2 9.24e-16
L2 port1 1 1.44e-8
R2 1 port2 1.07
R3 port1 port2 1.30e+4
L4 port1 2 3.30e-7
R4 2 port2 1.60e+3
L5 port1 3 3.67e-7
R5 3 port2 693
L6 port1 4 1.55e-7
R6 4 port2 56.1
L7 port1 5 5.96e-10
C7 5 6 1.24e-13
R7 6 port2 3.75
.ENDS LQP03TG13NJ02
*----------------------------------------------------------------------
*----------------------------------------------------------------------
* SPICE Model generated by Murata Manufacturing Co., Ltd.
* Copyright(C) Murata Manufacturing Co., Ltd.
* MURATA P/N : LQP03TG15NH02
* Property : L = 15[nH]
*----------------------------------------------------------------------
* Applicable Conditions:
*   Frequency Range = 1MHz - 20GHz
*   Temperature = 25 degC
*   DC Bias Current = 0 A
*   Small Signal Operation
*----------------------------------------------------------------------
.SUBCKT LQP03TG15NH02 port1 port2
C1 port1 port2 1.28e-13
L2 port1 1 1.67e-8
R2 1 port2 1.22
R3 port1 port2 7.80e+3
L4 port1 2 3.50e-7
R4 2 port2 1.00e+3
L5 port1 3 4.50e-7
R5 3 port2 1.00e+3
L6 port1 4 2.14e-7
R6 4 port2 85.0
L7 port1 5 1.60e-8
C7 5 6 4.60e-15
R7 6 port2 105
.ENDS LQP03TG15NH02
*----------------------------------------------------------------------
*----------------------------------------------------------------------
* SPICE Model generated by Murata Manufacturing Co., Ltd.
* Copyright(C) Murata Manufacturing Co., Ltd.
* MURATA P/N : LQP03TG15NJ02
* Property : L = 15[nH]
*----------------------------------------------------------------------
* Applicable Conditions:
*   Frequency Range = 1MHz - 20GHz
*   Temperature = 25 degC
*   DC Bias Current = 0 A
*   Small Signal Operation
*----------------------------------------------------------------------
.SUBCKT LQP03TG15NJ02 port1 port2
C1 port1 port2 1.28e-13
L2 port1 1 1.67e-8
R2 1 port2 1.22
R3 port1 port2 7.80e+3
L4 port1 2 3.50e-7
R4 2 port2 1.00e+3
L5 port1 3 4.50e-7
R5 3 port2 1.00e+3
L6 port1 4 2.14e-7
R6 4 port2 85.0
L7 port1 5 1.60e-8
C7 5 6 4.60e-15
R7 6 port2 105
.ENDS LQP03TG15NJ02
*----------------------------------------------------------------------
*----------------------------------------------------------------------
* SPICE Model generated by Murata Manufacturing Co., Ltd.
* Copyright(C) Murata Manufacturing Co., Ltd.
* MURATA P/N : LQP03TG16NH02
* Property : L = 16[nH]
*----------------------------------------------------------------------
* Applicable Conditions:
*   Frequency Range = 1MHz - 20GHz
*   Temperature = 25 degC
*   DC Bias Current = 0 A
*   Small Signal Operation
*----------------------------------------------------------------------
.SUBCKT LQP03TG16NH02 port1 port2
C1 port1 port2 1.64e-15
L2 port1 1 1.81e-8
R2 1 port2 1.23
R3 port1 port2 1.18e+4
L4 port1 2 3.38e-7
R4 2 port2 1.36e+3
L5 port1 3 2.91e-7
R5 3 port2 347
L6 port1 4 2.52e-7
R6 4 port2 56.1
L7 port1 5 6.10e-10
C7 5 6 1.33e-13
R7 6 port2 2.48
.ENDS LQP03TG16NH02
*----------------------------------------------------------------------
*----------------------------------------------------------------------
* SPICE Model generated by Murata Manufacturing Co., Ltd.
* Copyright(C) Murata Manufacturing Co., Ltd.
* MURATA P/N : LQP03TG16NJ02
* Property : L = 16[nH]
*----------------------------------------------------------------------
* Applicable Conditions:
*   Frequency Range = 1MHz - 20GHz
*   Temperature = 25 degC
*   DC Bias Current = 0 A
*   Small Signal Operation
*----------------------------------------------------------------------
.SUBCKT LQP03TG16NJ02 port1 port2
C1 port1 port2 1.64e-15
L2 port1 1 1.81e-8
R2 1 port2 1.23
R3 port1 port2 1.18e+4
L4 port1 2 3.38e-7
R4 2 port2 1.36e+3
L5 port1 3 2.91e-7
R5 3 port2 347
L6 port1 4 2.52e-7
R6 4 port2 56.1
L7 port1 5 6.10e-10
C7 5 6 1.33e-13
R7 6 port2 2.48
.ENDS LQP03TG16NJ02
*----------------------------------------------------------------------
*----------------------------------------------------------------------
* SPICE Model generated by Murata Manufacturing Co., Ltd.
* Copyright(C) Murata Manufacturing Co., Ltd.
* MURATA P/N : LQP03TG18NH02
* Property : L = 18[nH]
*----------------------------------------------------------------------
* Applicable Conditions:
*   Frequency Range = 1MHz - 20GHz
*   Temperature = 25 degC
*   DC Bias Current = 0 A
*   Small Signal Operation
*----------------------------------------------------------------------
.SUBCKT LQP03TG18NH02 port1 port2
C1 port1 port2 1.33e-13
L2 port1 1 2.04e-8
R2 1 port2 1.45
R3 port1 port2 7.00e+3
L4 port1 2 4.00e-7
R4 2 port2 1.00e+3
L5 port1 3 5.00e-7
R5 3 port2 1.00e+3
L6 port1 4 2.15e-7
R6 4 port2 70.0
L7 port1 5 1.70e-8
C7 5 6 5.55e-15
R7 6 port2 100
.ENDS LQP03TG18NH02
*----------------------------------------------------------------------
*----------------------------------------------------------------------
* SPICE Model generated by Murata Manufacturing Co., Ltd.
* Copyright(C) Murata Manufacturing Co., Ltd.
* MURATA P/N : LQP03TG18NJ02
* Property : L = 18[nH]
*----------------------------------------------------------------------
* Applicable Conditions:
*   Frequency Range = 1MHz - 20GHz
*   Temperature = 25 degC
*   DC Bias Current = 0 A
*   Small Signal Operation
*----------------------------------------------------------------------
.SUBCKT LQP03TG18NJ02 port1 port2
C1 port1 port2 1.33e-13
L2 port1 1 2.04e-8
R2 1 port2 1.45
R3 port1 port2 7.00e+3
L4 port1 2 4.00e-7
R4 2 port2 1.00e+3
L5 port1 3 5.00e-7
R5 3 port2 1.00e+3
L6 port1 4 2.15e-7
R6 4 port2 70.0
L7 port1 5 1.70e-8
C7 5 6 5.55e-15
R7 6 port2 100
.ENDS LQP03TG18NJ02
*----------------------------------------------------------------------
*----------------------------------------------------------------------
* SPICE Model generated by Murata Manufacturing Co., Ltd.
* Copyright(C) Murata Manufacturing Co., Ltd.
* MURATA P/N : LQP03TG1N0B02
* Property : L = 1[nH]
*----------------------------------------------------------------------
* Applicable Conditions:
*   Frequency Range = 1MHz - 20GHz
*   Temperature = 25 degC
*   DC Bias Current = 0 A
*   Small Signal Operation
*----------------------------------------------------------------------
.SUBCKT LQP03TG1N0B02 port1 port2
C1 port1 port2 3.00e-14
L2 port1 1 1.29e-9
R2 1 port2 9.00e-2
R3 port1 port2 3.50e+3
L4 port1 2 6.00e-8
R4 2 port2 1.00e+3
L5 port1 3 1.00e-7
R5 3 port2 300
L6 port1 4 1.10e-8
R6 4 port2 11.0
.ENDS LQP03TG1N0B02
*----------------------------------------------------------------------
*----------------------------------------------------------------------
* SPICE Model generated by Murata Manufacturing Co., Ltd.
* Copyright(C) Murata Manufacturing Co., Ltd.
* MURATA P/N : LQP03TG1N0C02
* Property : L = 1[nH]
*----------------------------------------------------------------------
* Applicable Conditions:
*   Frequency Range = 1MHz - 20GHz
*   Temperature = 25 degC
*   DC Bias Current = 0 A
*   Small Signal Operation
*----------------------------------------------------------------------
.SUBCKT LQP03TG1N0C02 port1 port2
C1 port1 port2 3.00e-14
L2 port1 1 1.29e-9
R2 1 port2 9.00e-2
R3 port1 port2 3.50e+3
L4 port1 2 6.00e-8
R4 2 port2 1.00e+3
L5 port1 3 1.00e-7
R5 3 port2 300
L6 port1 4 1.10e-8
R6 4 port2 11.0
.ENDS LQP03TG1N0C02
*----------------------------------------------------------------------
*----------------------------------------------------------------------
* SPICE Model generated by Murata Manufacturing Co., Ltd.
* Copyright(C) Murata Manufacturing Co., Ltd.
* MURATA P/N : LQP03TG1N1B02
* Property : L = 1.1[nH]
*----------------------------------------------------------------------
* Applicable Conditions:
*   Frequency Range = 1MHz - 20GHz
*   Temperature = 25 degC
*   DC Bias Current = 0 A
*   Small Signal Operation
*----------------------------------------------------------------------
.SUBCKT LQP03TG1N1B02 port1 port2
C1 port1 port2 4.00e-14
L2 port1 1 1.54e-9
R2 1 port2 6.00e-2
R3 port1 port2 3.50e+3
L4 port1 2 5.00e-8
R4 2 port2 600
L5 port1 3 1.50e-7
R5 3 port2 600
L6 port1 4 6.70e-9
R6 4 port2 4.50
.ENDS LQP03TG1N1B02
*----------------------------------------------------------------------
*----------------------------------------------------------------------
* SPICE Model generated by Murata Manufacturing Co., Ltd.
* Copyright(C) Murata Manufacturing Co., Ltd.
* MURATA P/N : LQP03TG1N1C02
* Property : L = 1.1[nH]
*----------------------------------------------------------------------
* Applicable Conditions:
*   Frequency Range = 1MHz - 20GHz
*   Temperature = 25 degC
*   DC Bias Current = 0 A
*   Small Signal Operation
*----------------------------------------------------------------------
.SUBCKT LQP03TG1N1C02 port1 port2
C1 port1 port2 4.00e-14
L2 port1 1 1.54e-9
R2 1 port2 6.00e-2
R3 port1 port2 3.50e+3
L4 port1 2 5.00e-8
R4 2 port2 600
L5 port1 3 1.50e-7
R5 3 port2 600
L6 port1 4 6.70e-9
R6 4 port2 4.50
.ENDS LQP03TG1N1C02