*----------------------------------------------------------------------
* SPICE Model generated by Murata Manufacturing Co., Ltd.
* Copyright(C) Murata Manufacturing Co., Ltd.
* MURATA P/N : LQP03TQ0N6B02
* Property : L = 0.6[nH]
*----------------------------------------------------------------------
* Applicable Conditions:
*   Frequency Range = 1MHz - 20GHz
*   Temperature = 25 degC
*   DC Bias Current = 0 A
*   Small Signal Operation
*----------------------------------------------------------------------
.SUBCKT LQP03TQ0N6B02 port1 port2
C1 port1 port2 3.21e-15
L2 port1 1 7.57e-10
R2 1 port2 1.18e-2
R3 port1 port2 6.82e+3
L4 port1 2 2.81e-6
R4 2 port2 1.53e+4
L5 port1 3 1.56e-8
R5 3 port2 20.9
L6 port1 4 4.69e-10
R6 4 port2 1.09e-2
L7 port1 5 2.26e-8
C7 5 6 5.17e-15
R7 6 port2 77.3
.ENDS LQP03TQ0N6B02
*----------------------------------------------------------------------
*----------------------------------------------------------------------
* SPICE Model generated by Murata Manufacturing Co., Ltd.
* Copyright(C) Murata Manufacturing Co., Ltd.
* MURATA P/N : LQP03TQ0N6C02
* Property : L = 0.6[nH]
*----------------------------------------------------------------------
* Applicable Conditions:
*   Frequency Range = 1MHz - 20GHz
*   Temperature = 25 degC
*   DC Bias Current = 0 A
*   Small Signal Operation
*----------------------------------------------------------------------
.SUBCKT LQP03TQ0N6C02 port1 port2
C1 port1 port2 3.21e-15
L2 port1 1 7.57e-10
R2 1 port2 1.18e-2
R3 port1 port2 6.82e+3
L4 port1 2 2.81e-6
R4 2 port2 1.53e+4
L5 port1 3 1.56e-8
R5 3 port2 20.9
L6 port1 4 4.69e-10
R6 4 port2 1.09e-2
L7 port1 5 2.26e-8
C7 5 6 5.17e-15
R7 6 port2 77.3
.ENDS LQP03TQ0N6C02
*----------------------------------------------------------------------
*----------------------------------------------------------------------
* SPICE Model generated by Murata Manufacturing Co., Ltd.
* Copyright(C) Murata Manufacturing Co., Ltd.
* MURATA P/N : LQP03TQ0N6W02
* Property : L = 0.6[nH]
*----------------------------------------------------------------------
* Applicable Conditions:
*   Frequency Range = 1MHz - 20GHz
*   Temperature = 25 degC
*   DC Bias Current = 0 A
*   Small Signal Operation
*----------------------------------------------------------------------
.SUBCKT LQP03TQ0N6W02 port1 port2
C1 port1 port2 3.21e-15
L2 port1 1 7.57e-10
R2 1 port2 1.18e-2
R3 port1 port2 6.82e+3
L4 port1 2 2.81e-6
R4 2 port2 1.53e+4
L5 port1 3 1.56e-8
R5 3 port2 20.9
L6 port1 4 4.69e-10
R6 4 port2 1.09e-2
L7 port1 5 2.26e-8
C7 5 6 5.17e-15
R7 6 port2 77.3
.ENDS LQP03TQ0N6W02
*----------------------------------------------------------------------
*----------------------------------------------------------------------
* SPICE Model generated by Murata Manufacturing Co., Ltd.
* Copyright(C) Murata Manufacturing Co., Ltd.
* MURATA P/N : LQP03TQ0N7B02
* Property : L = 0.7[nH]
*----------------------------------------------------------------------
* Applicable Conditions:
*   Frequency Range = 1MHz - 20GHz
*   Temperature = 25 degC
*   DC Bias Current = 0 A
*   Small Signal Operation
*----------------------------------------------------------------------
.SUBCKT LQP03TQ0N7B02 port1 port2
C1 port1 port2 2.61e-14
L2 port1 1 7.92e-10
R2 1 port2 1.35e-2
R3 port1 port2 1.16e+4
L4 port1 2 1.62e-6
R4 2 port2 9.02e+3
L5 port1 3 1.01e-7
R5 3 port2 209
L6 port1 4 6.33e-10
R6 4 port2 1.48e-2
L7 port1 5 3.59e-8
C7 5 6 3.26e-15
R7 6 port2 123
.ENDS LQP03TQ0N7B02
*----------------------------------------------------------------------
*----------------------------------------------------------------------
* SPICE Model generated by Murata Manufacturing Co., Ltd.
* Copyright(C) Murata Manufacturing Co., Ltd.
* MURATA P/N : LQP03TQ0N7C02
* Property : L = 0.7[nH]
*----------------------------------------------------------------------
* Applicable Conditions:
*   Frequency Range = 1MHz - 20GHz
*   Temperature = 25 degC
*   DC Bias Current = 0 A
*   Small Signal Operation
*----------------------------------------------------------------------
.SUBCKT LQP03TQ0N7C02 port1 port2
C1 port1 port2 2.61e-14
L2 port1 1 7.92e-10
R2 1 port2 1.35e-2
R3 port1 port2 1.16e+4
L4 port1 2 1.62e-6
R4 2 port2 9.02e+3
L5 port1 3 1.01e-7
R5 3 port2 209
L6 port1 4 6.33e-10
R6 4 port2 1.48e-2
L7 port1 5 3.59e-8
C7 5 6 3.26e-15
R7 6 port2 123
.ENDS LQP03TQ0N7C02
*----------------------------------------------------------------------
*----------------------------------------------------------------------
* SPICE Model generated by Murata Manufacturing Co., Ltd.
* Copyright(C) Murata Manufacturing Co., Ltd.
* MURATA P/N : LQP03TQ0N7W02
* Property : L = 0.7[nH]
*----------------------------------------------------------------------
* Applicable Conditions:
*   Frequency Range = 1MHz - 20GHz
*   Temperature = 25 degC
*   DC Bias Current = 0 A
*   Small Signal Operation
*----------------------------------------------------------------------
.SUBCKT LQP03TQ0N7W02 port1 port2
C1 port1 port2 2.61e-14
L2 port1 1 7.92e-10
R2 1 port2 1.35e-2
R3 port1 port2 1.16e+4
L4 port1 2 1.62e-6
R4 2 port2 9.02e+3
L5 port1 3 1.01e-7
R5 3 port2 209
L6 port1 4 6.33e-10
R6 4 port2 1.48e-2
L7 port1 5 3.59e-8
C7 5 6 3.26e-15
R7 6 port2 123
.ENDS LQP03TQ0N7W02
*----------------------------------------------------------------------
*----------------------------------------------------------------------
* SPICE Model generated by Murata Manufacturing Co., Ltd.
* Copyright(C) Murata Manufacturing Co., Ltd.
* MURATA P/N : LQP03TQ0N8B02
* Property : L = 0.8[nH]
*----------------------------------------------------------------------
* Applicable Conditions:
*   Frequency Range = 1MHz - 20GHz
*   Temperature = 25 degC
*   DC Bias Current = 0 A
*   Small Signal Operation
*----------------------------------------------------------------------
.SUBCKT LQP03TQ0N8B02 port1 port2
C1 port1 port2 2.61e-14
L2 port1 1 5.36e-10
R2 1 port2 2.14e-2
R3 port1 port2 4.83e+3
L4 port1 2 2.18e-7
R4 2 port2 1.14e+3
L5 port1 3 5.06e-8
R5 3 port2 105
L6 port1 4 3.10e-9
R6 4 port2 3.71e-2
L7 port1 5 3.59e-8
C7 5 6 3.26e-15
R7 6 port2 123
.ENDS LQP03TQ0N8B02
*----------------------------------------------------------------------
*----------------------------------------------------------------------
* SPICE Model generated by Murata Manufacturing Co., Ltd.
* Copyright(C) Murata Manufacturing Co., Ltd.
* MURATA P/N : LQP03TQ0N8C02
* Property : L = 0.8[nH]
*----------------------------------------------------------------------
* Applicable Conditions:
*   Frequency Range = 1MHz - 20GHz
*   Temperature = 25 degC
*   DC Bias Current = 0 A
*   Small Signal Operation
*----------------------------------------------------------------------
.SUBCKT LQP03TQ0N8C02 port1 port2
C1 port1 port2 2.61e-14
L2 port1 1 5.36e-10
R2 1 port2 2.14e-2
R3 port1 port2 4.83e+3
L4 port1 2 2.18e-7
R4 2 port2 1.14e+3
L5 port1 3 5.06e-8
R5 3 port2 105
L6 port1 4 3.10e-9
R6 4 port2 3.71e-2
L7 port1 5 3.59e-8
C7 5 6 3.26e-15
R7 6 port2 123
.ENDS LQP03TQ0N8C02
*----------------------------------------------------------------------
*----------------------------------------------------------------------
* SPICE Model generated by Murata Manufacturing Co., Ltd.
* Copyright(C) Murata Manufacturing Co., Ltd.
* MURATA P/N : LQP03TQ0N8W02
* Property : L = 0.8[nH]
*----------------------------------------------------------------------
* Applicable Conditions:
*   Frequency Range = 1MHz - 20GHz
*   Temperature = 25 degC
*   DC Bias Current = 0 A
*   Small Signal Operation
*----------------------------------------------------------------------
.SUBCKT LQP03TQ0N8W02 port1 port2
C1 port1 port2 2.61e-14
L2 port1 1 5.36e-10
R2 1 port2 2.14e-2
R3 port1 port2 4.83e+3
L4 port1 2 2.18e-7
R4 2 port2 1.14e+3
L5 port1 3 5.06e-8
R5 3 port2 105
L6 port1 4 3.10e-9
R6 4 port2 3.71e-2
L7 port1 5 3.59e-8
C7 5 6 3.26e-15
R7 6 port2 123
.ENDS LQP03TQ0N8W02
*----------------------------------------------------------------------
*----------------------------------------------------------------------
* SPICE Model generated by Murata Manufacturing Co., Ltd.
* Copyright(C) Murata Manufacturing Co., Ltd.
* MURATA P/N : LQP03TQ0N9B02
* Property : L = 0.9[nH]
*----------------------------------------------------------------------
* Applicable Conditions:
*   Frequency Range = 1MHz - 20GHz
*   Temperature = 25 degC
*   DC Bias Current = 0 A
*   Small Signal Operation
*----------------------------------------------------------------------
.SUBCKT LQP03TQ0N9B02 port1 port2
C1 port1 port2 2.61e-14
L2 port1 1 5.61e-10
R2 1 port2 2.69e-2
R3 port1 port2 4.02e+3
L4 port1 2 6.14e-8
R4 2 port2 320
L5 port1 3 2.66e-8
R5 3 port2 31.0
L6 port1 4 3.81e-8
R6 4 port2 1.82
L7 port1 5 5.31e-8
C7 5 6 2.10e-15
R7 6 port2 185
.ENDS LQP03TQ0N9B02
*----------------------------------------------------------------------
*----------------------------------------------------------------------
* SPICE Model generated by Murata Manufacturing Co., Ltd.
* Copyright(C) Murata Manufacturing Co., Ltd.
* MURATA P/N : LQP03TQ0N9C02
* Property : L = 0.9[nH]
*----------------------------------------------------------------------
* Applicable Conditions:
*   Frequency Range = 1MHz - 20GHz
*   Temperature = 25 degC
*   DC Bias Current = 0 A
*   Small Signal Operation
*----------------------------------------------------------------------
.SUBCKT LQP03TQ0N9C02 port1 port2
C1 port1 port2 2.61e-14
L2 port1 1 5.61e-10
R2 1 port2 2.69e-2
R3 port1 port2 4.02e+3
L4 port1 2 6.14e-8
R4 2 port2 320
L5 port1 3 2.66e-8
R5 3 port2 31.0
L6 port1 4 3.81e-8
R6 4 port2 1.82
L7 port1 5 5.31e-8
C7 5 6 2.10e-15
R7 6 port2 185
.ENDS LQP03TQ0N9C02
*----------------------------------------------------------------------
*----------------------------------------------------------------------
* SPICE Model generated by Murata Manufacturing Co., Ltd.
* Copyright(C) Murata Manufacturing Co., Ltd.
* MURATA P/N : LQP03TQ0N9W02
* Property : L = 0.9[nH]
*----------------------------------------------------------------------
* Applicable Conditions:
*   Frequency Range = 1MHz - 20GHz
*   Temperature = 25 degC
*   DC Bias Current = 0 A
*   Small Signal Operation
*----------------------------------------------------------------------
.SUBCKT LQP03TQ0N9W02 port1 port2
C1 port1 port2 2.61e-14
L2 port1 1 5.61e-10
R2 1 port2 2.69e-2
R3 port1 port2 4.02e+3
L4 port1 2 6.14e-8
R4 2 port2 320
L5 port1 3 2.66e-8
R5 3 port2 31.0
L6 port1 4 3.81e-8
R6 4 port2 1.82
L7 port1 5 5.31e-8
C7 5 6 2.10e-15
R7 6 port2 185
.ENDS LQP03TQ0N9W02
*----------------------------------------------------------------------
*----------------------------------------------------------------------
* SPICE Model generated by Murata Manufacturing Co., Ltd.
* Copyright(C) Murata Manufacturing Co., Ltd.
* MURATA P/N : LQP03TQ10NH02
* Property : L = 10[nH]
*----------------------------------------------------------------------
* Applicable Conditions:
*   Frequency Range = 1MHz - 20GHz
*   Temperature = 25 degC
*   DC Bias Current = 0 A
*   Small Signal Operation
*----------------------------------------------------------------------
.SUBCKT LQP03TQ10NH02 port1 port2
C1 port1 port2 7.18e-14
L2 port1 1 1.09e-8
R2 1 port2 3.72e-1
R3 port1 port2 1.24e+4
L4 port1 2 1.90e-7
R4 2 port2 473
L5 port1 3 1.49e-7
R5 3 port2 57.7
L6 port1 4 1.55e-6
R6 4 port2 50.0
.ENDS LQP03TQ10NH02
*----------------------------------------------------------------------
*----------------------------------------------------------------------
* SPICE Model generated by Murata Manufacturing Co., Ltd.
* Copyright(C) Murata Manufacturing Co., Ltd.
* MURATA P/N : LQP03TQ10NJ02
* Property : L = 10[nH]
*----------------------------------------------------------------------
* Applicable Conditions:
*   Frequency Range = 1MHz - 20GHz
*   Temperature = 25 degC
*   DC Bias Current = 0 A
*   Small Signal Operation
*----------------------------------------------------------------------
.SUBCKT LQP03TQ10NJ02 port1 port2
C1 port1 port2 7.18e-14
L2 port1 1 1.09e-8
R2 1 port2 3.72e-1
R3 port1 port2 1.24e+4
L4 port1 2 1.90e-7
R4 2 port2 473
L5 port1 3 1.49e-7
R5 3 port2 57.7
L6 port1 4 1.55e-6
R6 4 port2 50.0
.ENDS LQP03TQ10NJ02
*----------------------------------------------------------------------
*----------------------------------------------------------------------
* SPICE Model generated by Murata Manufacturing Co., Ltd.
* Copyright(C) Murata Manufacturing Co., Ltd.
* MURATA P/N : LQP03TQ11NH02
* Property : L = 11[nH]
*----------------------------------------------------------------------
* Applicable Conditions:
*   Frequency Range = 1MHz - 20GHz
*   Temperature = 25 degC
*   DC Bias Current = 0 A
*   Small Signal Operation
*----------------------------------------------------------------------
.SUBCKT LQP03TQ11NH02 port1 port2
C1 port1 port2 6.85e-14
L2 port1 1 1.23e-8
R2 1 port2 3.24e-1
R3 port1 port2 1.27e+4
L4 port1 2 2.08e-7
R4 2 port2 507
L5 port1 3 1.33e-7
R5 3 port2 60.4
L6 port1 4 3.90e-7
R6 4 port2 4.46
.ENDS LQP03TQ11NH02
*----------------------------------------------------------------------
*----------------------------------------------------------------------
* SPICE Model generated by Murata Manufacturing Co., Ltd.
* Copyright(C) Murata Manufacturing Co., Ltd.
* MURATA P/N : LQP03TQ11NJ02
* Property : L = 11[nH]
*----------------------------------------------------------------------
* Applicable Conditions:
*   Frequency Range = 1MHz - 20GHz
*   Temperature = 25 degC
*   DC Bias Current = 0 A
*   Small Signal Operation
*----------------------------------------------------------------------
.SUBCKT LQP03TQ11NJ02 port1 port2
C1 port1 port2 6.85e-14
L2 port1 1 1.23e-8
R2 1 port2 3.24e-1
R3 port1 port2 1.27e+4
L4 port1 2 2.08e-7
R4 2 port2 507
L5 port1 3 1.33e-7
R5 3 port2 60.4
L6 port1 4 3.90e-7
R6 4 port2 4.46
.ENDS LQP03TQ11NJ02
*----------------------------------------------------------------------
*----------------------------------------------------------------------
* SPICE Model generated by Murata Manufacturing Co., Ltd.
* Copyright(C) Murata Manufacturing Co., Ltd.
* MURATA P/N : LQP03TQ12NH02
* Property : L = 12[nH]
*----------------------------------------------------------------------
* Applicable Conditions:
*   Frequency Range = 1MHz - 20GHz
*   Temperature = 25 degC
*   DC Bias Current = 0 A
*   Small Signal Operation
*----------------------------------------------------------------------
.SUBCKT LQP03TQ12NH02 port1 port2
C1 port1 port2 8.63e-14
L2 port1 1 1.32e-8
R2 1 port2 3.24e-1
R3 port1 port2 1.27e+4
L4 port1 2 2.18e-7
R4 2 port2 531
L5 port1 3 1.43e-7
R5 3 port2 64.7
L6 port1 4 8.15e-4
R6 4 port2 9.10e+3
L7 port1 5 2.61e-8
C7 5 6 3.10e-15
R7 6 port2 16.2
.ENDS LQP03TQ12NH02
*----------------------------------------------------------------------
*----------------------------------------------------------------------
* SPICE Model generated by Murata Manufacturing Co., Ltd.
* Copyright(C) Murata Manufacturing Co., Ltd.
* MURATA P/N : LQP03TQ12NJ02
* Property : L = 12[nH]
*----------------------------------------------------------------------
* Applicable Conditions:
*   Frequency Range = 1MHz - 20GHz
*   Temperature = 25 degC
*   DC Bias Current = 0 A
*   Small Signal Operation
*----------------------------------------------------------------------
.SUBCKT LQP03TQ12NJ02 port1 port2
C1 port1 port2 8.63e-14
L2 port1 1 1.32e-8
R2 1 port2 3.24e-1
R3 port1 port2 1.27e+4
L4 port1 2 2.18e-7
R4 2 port2 531
L5 port1 3 1.43e-7
R5 3 port2 64.7
L6 port1 4 8.15e-4
R6 4 port2 9.10e+3
L7 port1 5 2.61e-8
C7 5 6 3.10e-15
R7 6 port2 16.2
.ENDS LQP03TQ12NJ02
*----------------------------------------------------------------------
*----------------------------------------------------------------------
* SPICE Model generated by Murata Manufacturing Co., Ltd.
* Copyright(C) Murata Manufacturing Co., Ltd.
* MURATA P/N : LQP03TQ13NH02
* Property : L = 13[nH]
*----------------------------------------------------------------------
* Applicable Conditions:
*   Frequency Range = 1MHz - 20GHz
*   Temperature = 25 degC
*   DC Bias Current = 0 A
*   Small Signal Operation
*----------------------------------------------------------------------
.SUBCKT LQP03TQ13NH02 port1 port2
C1 port1 port2 7.34e-14
L2 port1 1 1.44e-8
R2 1 port2 4.17e-1
R3 port1 port2 1.42e+4
L4 port1 2 2.39e-7
R4 2 port2 582
L5 port1 3 1.68e-7
R5 3 port2 63.2
L6 port1 4 1.29e-6
R6 4 port2 9.10
L7 port1 5 8.81e-9
C7 5 6 9.62e-15
R7 6 port2 22.3
.ENDS LQP03TQ13NH02
*----------------------------------------------------------------------
*----------------------------------------------------------------------
* SPICE Model generated by Murata Manufacturing Co., Ltd.
* Copyright(C) Murata Manufacturing Co., Ltd.
* MURATA P/N : LQP03TQ13NJ02
* Property : L = 13[nH]
*----------------------------------------------------------------------
* Applicable Conditions:
*   Frequency Range = 1MHz - 20GHz
*   Temperature = 25 degC
*   DC Bias Current = 0 A
*   Small Signal Operation
*----------------------------------------------------------------------
.SUBCKT LQP03TQ13NJ02 port1 port2
C1 port1 port2 7.34e-14
L2 port1 1 1.44e-8
R2 1 port2 4.17e-1
R3 port1 port2 1.42e+4
L4 port1 2 2.39e-7
R4 2 port2 582
L5 port1 3 1.68e-7
R5 3 port2 63.2
L6 port1 4 1.29e-6
R6 4 port2 9.10
L7 port1 5 8.81e-9
C7 5 6 9.62e-15
R7 6 port2 22.3
.ENDS LQP03TQ13NJ02
*----------------------------------------------------------------------
*----------------------------------------------------------------------
* SPICE Model generated by Murata Manufacturing Co., Ltd.
* Copyright(C) Murata Manufacturing Co., Ltd.
* MURATA P/N : LQP03TQ1N0B02
* Property : L = 1[nH]
*----------------------------------------------------------------------
* Applicable Conditions:
*   Frequency Range = 1MHz - 20GHz
*   Temperature = 25 degC
*   DC Bias Current = 0 A
*   Small Signal Operation
*----------------------------------------------------------------------
.SUBCKT LQP03TQ1N0B02 port1 port2
C1 port1 port2 2.49e-14
L2 port1 1 6.74e-10
R2 1 port2 2.09e-2
R3 port1 port2 4.61e+3
L4 port1 2 8.10e-8
R4 2 port2 422
L5 port1 3 2.72e-8
R5 3 port2 33.2
L6 port1 4 1.35e-7
R6 4 port2 3.01
L7 port1 5 5.31e-8
C7 5 6 2.10e-15
R7 6 port2 185
.ENDS LQP03TQ1N0B02
*----------------------------------------------------------------------
*----------------------------------------------------------------------
* SPICE Model generated by Murata Manufacturing Co., Ltd.
* Copyright(C) Murata Manufacturing Co., Ltd.
* MURATA P/N : LQP03TQ1N0C02
* Property : L = 1[nH]
*----------------------------------------------------------------------
* Applicable Conditions:
*   Frequency Range = 1MHz - 20GHz
*   Temperature = 25 degC
*   DC Bias Current = 0 A
*   Small Signal Operation
*----------------------------------------------------------------------
.SUBCKT LQP03TQ1N0C02 port1 port2
C1 port1 port2 2.49e-14
L2 port1 1 6.74e-10
R2 1 port2 2.09e-2
R3 port1 port2 4.61e+3
L4 port1 2 8.10e-8
R4 2 port2 422
L5 port1 3 2.72e-8
R5 3 port2 33.2
L6 port1 4 1.35e-7
R6 4 port2 3.01
L7 port1 5 5.31e-8
C7 5 6 2.10e-15
R7 6 port2 185
.ENDS LQP03TQ1N0C02
*----------------------------------------------------------------------
*----------------------------------------------------------------------
* SPICE Model generated by Murata Manufacturing Co., Ltd.
* Copyright(C) Murata Manufacturing Co., Ltd.
* MURATA P/N : LQP03TQ1N0W02
* Property : L = 1[nH]
*----------------------------------------------------------------------
* Applicable Conditions:
*   Frequency Range = 1MHz - 20GHz
*   Temperature = 25 degC
*   DC Bias Current = 0 A
*   Small Signal Operation
*----------------------------------------------------------------------
.SUBCKT LQP03TQ1N0W02 port1 port2
C1 port1 port2 2.49e-14
L2 port1 1 6.74e-10
R2 1 port2 2.09e-2
R3 port1 port2 4.61e+3
L4 port1 2 8.10e-8
R4 2 port2 422
L5 port1 3 2.72e-8
R5 3 port2 33.2
L6 port1 4 1.35e-7
R6 4 port2 3.01
L7 port1 5 5.31e-8
C7 5 6 2.10e-15
R7 6 port2 185
.ENDS LQP03TQ1N0W02
*----------------------------------------------------------------------
*----------------------------------------------------------------------
* SPICE Model generated by Murata Manufacturing Co., Ltd.
* Copyright(C) Murata Manufacturing Co., Ltd.
* MURATA P/N : LQP03TQ1N1B02
* Property : L = 1.1[nH]
*----------------------------------------------------------------------
* Applicable Conditions:
*   Frequency Range = 1MHz - 20GHz
*   Temperature = 25 degC
*   DC Bias Current = 0 A
*   Small Signal Operation
*----------------------------------------------------------------------
.SUBCKT LQP03TQ1N1B02 port1 port2
C1 port1 port2 2.61e-14
L2 port1 1 9.75e-10
R2 1 port2 2.29e-2
R3 port1 port2 4.72e+3
L4 port1 2 8.10e-8
R4 2 port2 462
L5 port1 3 1.88e-8
R5 3 port2 22.4
L6 port1 4 4.18e-9
R6 4 port2 4.56e-1
L7 port1 5 7.67e-8
C7 5 6 1.60e-15
R7 6 port2 104
.ENDS LQP03TQ1N1B02
*----------------------------------------------------------------------
*----------------------------------------------------------------------
* SPICE Model generated by Murata Manufacturing Co., Ltd.
* Copyright(C) Murata Manufacturing Co., Ltd.
* MURATA P/N : LQP03TQ1N1C02
* Property : L = 1.1[nH]
*----------------------------------------------------------------------
* Applicable Conditions:
*   Frequency Range = 1MHz - 20GHz
*   Temperature = 25 degC
*   DC Bias Current = 0 A
*   Small Signal Operation
*----------------------------------------------------------------------
.SUBCKT LQP03TQ1N1C02 port1 port2
C1 port1 port2 2.61e-14
L2 port1 1 9.75e-10
R2 1 port2 2.29e-2
R3 port1 port2 4.72e+3
L4 port1 2 8.10e-8
R4 2 port2 462
L5 port1 3 1.88e-8
R5 3 port2 22.4
L6 port1 4 4.18e-9
R6 4 port2 4.56e-1
L7 port1 5 7.67e-8
C7 5 6 1.60e-15
R7 6 port2 104
.ENDS LQP03TQ1N1C02
*----------------------------------------------------------------------
*----------------------------------------------------------------------
* SPICE Model generated by Murata Manufacturing Co., Ltd.
* Copyright(C) Murata Manufacturing Co., Ltd.
* MURATA P/N : LQP03TQ1N1W02
* Property : L = 1.1[nH]
*----------------------------------------------------------------------
* Applicable Conditions:
*   Frequency Range = 1MHz - 20GHz
*   Temperature = 25 degC
*   DC Bias Current = 0 A
*   Small Signal Operation
*----------------------------------------------------------------------
.SUBCKT LQP03TQ1N1W02 port1 port2
C1 port1 port2 2.61e-14
L2 port1 1 9.75e-10
R2 1 port2 2.29e-2
R3 port1 port2 4.72e+3
L4 port1 2 8.10e-8
R4 2 port2 462
L5 port1 3 1.88e-8
R5 3 port2 22.4
L6 port1 4 4.18e-9
R6 4 port2 4.56e-1
L7 port1 5 7.67e-8
C7 5 6 1.60e-15
R7 6 port2 104
.ENDS LQP03TQ1N1W02
*----------------------------------------------------------------------
*----------------------------------------------------------------------
* SPICE Model generated by Murata Manufacturing Co., Ltd.
* Copyright(C) Murata Manufacturing Co., Ltd.
* MURATA P/N : LQP03TQ1N2B02
* Property : L = 1.2[nH]
*----------------------------------------------------------------------
* Applicable Conditions:
*   Frequency Range = 1MHz - 20GHz
*   Temperature = 25 degC
*   DC Bias Current = 0 A
*   Small Signal Operation
*----------------------------------------------------------------------
.SUBCKT LQP03TQ1N2B02 port1 port2
C1 port1 port2 2.61e-14
L2 port1 1 9.10e-10
R2 1 port2 3.63e-2
R3 port1 port2 4.72e+3
L4 port1 2 6.00e-8
R4 2 port2 216
L5 port1 3 3.19e-8
R5 3 port2 38.1
L6 port1 4 8.93e-8
R6 4 port2 7.75
L7 port1 5 4.73e-8
C7 5 6 2.71e-15
R7 6 port2 158
.ENDS LQP03TQ1N2B02
*----------------------------------------------------------------------
*----------------------------------------------------------------------
* SPICE Model generated by Murata Manufacturing Co., Ltd.
* Copyright(C) Murata Manufacturing Co., Ltd.
* MURATA P/N : LQP03TQ1N2C02
* Property : L = 1.2[nH]
*----------------------------------------------------------------------
* Applicable Conditions:
*   Frequency Range = 1MHz - 20GHz
*   Temperature = 25 degC
*   DC Bias Current = 0 A
*   Small Signal Operation
*----------------------------------------------------------------------
.SUBCKT LQP03TQ1N2C02 port1 port2
C1 port1 port2 2.61e-14
L2 port1 1 9.10e-10
R2 1 port2 3.63e-2
R3 port1 port2 4.72e+3
L4 port1 2 6.00e-8
R4 2 port2 216
L5 port1 3 3.19e-8
R5 3 port2 38.1
L6 port1 4 8.93e-8
R6 4 port2 7.75
L7 port1 5 4.73e-8
C7 5 6 2.71e-15
R7 6 port2 158
.ENDS LQP03TQ1N2C02
*----------------------------------------------------------------------
*----------------------------------------------------------------------
* SPICE Model generated by Murata Manufacturing Co., Ltd.
* Copyright(C) Murata Manufacturing Co., Ltd.
* MURATA P/N : LQP03TQ1N2W02
* Property : L = 1.2[nH]
*----------------------------------------------------------------------
* Applicable Conditions:
*   Frequency Range = 1MHz - 20GHz
*   Temperature = 25 degC
*   DC Bias Current = 0 A
*   Small Signal Operation
*----------------------------------------------------------------------
.SUBCKT LQP03TQ1N2W02 port1 port2
C1 port1 port2 2.61e-14
L2 port1 1 9.10e-10
R2 1 port2 3.63e-2
R3 port1 port2 4.72e+3
L4 port1 2 6.00e-8
R4 2 port2 216
L5 port1 3 3.19e-8
R5 3 port2 38.1
L6 port1 4 8.93e-8
R6 4 port2 7.75
L7 port1 5 4.73e-8
C7 5 6 2.71e-15
R7 6 port2 158
.ENDS LQP03TQ1N2W02
*----------------------------------------------------------------------
*----------------------------------------------------------------------
* SPICE Model generated by Murata Manufacturing Co., Ltd.
* Copyright(C) Murata Manufacturing Co., Ltd.
* MURATA P/N : LQP03TQ1N3B02
* Property : L = 1.3[nH]
*----------------------------------------------------------------------
* Applicable Conditions:
*   Frequency Range = 1MHz - 20GHz
*   Temperature = 25 degC
*   DC Bias Current = 0 A
*   Small Signal Operation
*----------------------------------------------------------------------
.SUBCKT LQP03TQ1N3B02 port1 port2
C1 port1 port2 6.25e-14
L2 port1 1 1.04e-9
R2 1 port2 3.39e-2
R3 port1 port2 8.59e+3
L4 port1 2 6.89e-8
R4 2 port2 422
L5 port1 3 2.54e-8
R5 3 port2 28.2
L6 port1 4 2.30e-8
R6 4 port2 2.23
.ENDS LQP03TQ1N3B02
*----------------------------------------------------------------------
*----------------------------------------------------------------------
* SPICE Model generated by Murata Manufacturing Co., Ltd.
* Copyright(C) Murata Manufacturing Co., Ltd.
* MURATA P/N : LQP03TQ1N3C02
* Property : L = 1.3[nH]
*----------------------------------------------------------------------
* Applicable Conditions:
*   Frequency Range = 1MHz - 20GHz
*   Temperature = 25 degC
*   DC Bias Current = 0 A
*   Small Signal Operation
*----------------------------------------------------------------------
.SUBCKT LQP03TQ1N3C02 port1 port2
C1 port1 port2 6.25e-14
L2 port1 1 1.04e-9
R2 1 port2 3.39e-2
R3 port1 port2 8.59e+3
L4 port1 2 6.89e-8
R4 2 port2 422
L5 port1 3 2.54e-8
R5 3 port2 28.2
L6 port1 4 2.30e-8
R6 4 port2 2.23
.ENDS LQP03TQ1N3C02
*----------------------------------------------------------------------
*----------------------------------------------------------------------
* SPICE Model generated by Murata Manufacturing Co., Ltd.
* Copyright(C) Murata Manufacturing Co., Ltd.
* MURATA P/N : LQP03TQ1N3W02
* Property : L = 1.3[nH]
*----------------------------------------------------------------------
* Applicable Conditions:
*   Frequency Range = 1MHz - 20GHz
*   Temperature = 25 degC
*   DC Bias Current = 0 A
*   Small Signal Operation
*----------------------------------------------------------------------
.SUBCKT LQP03TQ1N3W02 port1 port2
C1 port1 port2 6.25e-14
L2 port1 1 1.04e-9
R2 1 port2 3.39e-2
R3 port1 port2 8.59e+3
L4 port1 2 6.89e-8
R4 2 port2 422
L5 port1 3 2.54e-8
R5 3 port2 28.2
L6 port1 4 2.30e-8
R6 4 port2 2.23
.ENDS LQP03TQ1N3W02
*----------------------------------------------------------------------
*----------------------------------------------------------------------
* SPICE Model generated by Murata Manufacturing Co., Ltd.
* Copyright(C) Murata Manufacturing Co., Ltd.
* MURATA P/N : LQP03TQ1N4B02
* Property : L = 1.4[nH]
*----------------------------------------------------------------------
* Applicable Conditions:
*   Frequency Range = 1MHz - 20GHz
*   Temperature = 25 degC
*   DC Bias Current = 0 A
*   Small Signal Operation
*----------------------------------------------------------------------
.SUBCKT LQP03TQ1N4B02 port1 port2
C1 port1 port2 5.20e-14
L2 port1 1 1.15e-9
R2 1 port2 3.55e-2
R3 port1 port2 8.59e+3
L4 port1 2 7.91e-8
R4 2 port2 556
L5 port1 3 2.72e-8
R5 3 port2 30.3
L6 port1 4 2.30e-8
R6 4 port2 5.61
.ENDS LQP03TQ1N4B02
*----------------------------------------------------------------------
*----------------------------------------------------------------------
* SPICE Model generated by Murata Manufacturing Co., Ltd.
* Copyright(C) Murata Manufacturing Co., Ltd.
* MURATA P/N : LQP03TQ1N4C02
* Property : L = 1.4[nH]
*----------------------------------------------------------------------
* Applicable Conditions:
*   Frequency Range = 1MHz - 20GHz
*   Temperature = 25 degC
*   DC Bias Current = 0 A
*   Small Signal Operation
*----------------------------------------------------------------------
.SUBCKT LQP03TQ1N4C02 port1 port2
C1 port1 port2 5.20e-14
L2 port1 1 1.15e-9
R2 1 port2 3.55e-2
R3 port1 port2 8.59e+3
L4 port1 2 7.91e-8
R4 2 port2 556
L5 port1 3 2.72e-8
R5 3 port2 30.3
L6 port1 4 2.30e-8
R6 4 port2 5.61
.ENDS LQP03TQ1N4C02
*----------------------------------------------------------------------
*----------------------------------------------------------------------
* SPICE Model generated by Murata Manufacturing Co., Ltd.
* Copyright(C) Murata Manufacturing Co., Ltd.
* MURATA P/N : LQP03TQ1N4W02
* Property : L = 1.4[nH]
*----------------------------------------------------------------------
* Applicable Conditions:
*   Frequency Range = 1MHz - 20GHz
*   Temperature = 25 degC
*   DC Bias Current = 0 A
*   Small Signal Operation