*----------------------------------------------------------------------
* SPICE Model generated by Murata Manufacturing Co., Ltd.
* Copyright(C) Murata Manufacturing Co., Ltd.
* MURATA P/N : LQP02TN0N2B02
* Property : L = 0.2[nH]
*----------------------------------------------------------------------
* Applicable Conditions:
*   Frequency Range = 1MHz - 20GHz
*   Temperature = 25 degC
*   DC Bias Current = 0 A
*   Small Signal Operation
*----------------------------------------------------------------------
.SUBCKT LQP02TN0N2B02 port1 port2
C1 port1 port2 1.00e-14
L2 port1 1 2.45e-10
R2 1 port2 1.70e-2
R3 port1 port2 2.00e+3
L4 port1 2 5.00e-7
R4 2 port2 1.20e+3
L5 port1 3 3.50e-8
R5 3 port2 220
L6 port1 4 3.00e-9
R6 4 port2 9.00
L7 port1 5 2.50e-7
R7 5 port2 400
.ENDS LQP02TN0N2B02
*----------------------------------------------------------------------
*----------------------------------------------------------------------
* SPICE Model generated by Murata Manufacturing Co., Ltd.
* Copyright(C) Murata Manufacturing Co., Ltd.
* MURATA P/N : LQP02TN0N2C02
* Property : L = 0.2[nH]
*----------------------------------------------------------------------
* Applicable Conditions:
*   Frequency Range = 1MHz - 20GHz
*   Temperature = 25 degC
*   DC Bias Current = 0 A
*   Small Signal Operation
*----------------------------------------------------------------------
.SUBCKT LQP02TN0N2C02 port1 port2
C1 port1 port2 1.00e-14
L2 port1 1 2.45e-10
R2 1 port2 1.70e-2
R3 port1 port2 2.00e+3
L4 port1 2 5.00e-7
R4 2 port2 1.20e+3
L5 port1 3 3.50e-8
R5 3 port2 220
L6 port1 4 3.00e-9
R6 4 port2 9.00
L7 port1 5 2.50e-7
R7 5 port2 400
.ENDS LQP02TN0N2C02
*----------------------------------------------------------------------
*----------------------------------------------------------------------
* SPICE Model generated by Murata Manufacturing Co., Ltd.
* Copyright(C) Murata Manufacturing Co., Ltd.
* MURATA P/N : LQP02TN0N3B02
* Property : L = 0.3[nH]
*----------------------------------------------------------------------
* Applicable Conditions:
*   Frequency Range = 1MHz - 20GHz
*   Temperature = 25 degC
*   DC Bias Current = 0 A
*   Small Signal Operation
*----------------------------------------------------------------------
.SUBCKT LQP02TN0N3B02 port1 port2
C1 port1 port2 1.00e-14
L2 port1 1 3.63e-10
R2 1 port2 2.80e-2
R3 port1 port2 2.00e+3
L4 port1 2 5.00e-7
R4 2 port2 800
L5 port1 3 3.50e-8
R5 3 port2 220
L6 port1 4 3.00e-9
R6 4 port2 11.0
L7 port1 5 2.50e-7
R7 5 port2 400
.ENDS LQP02TN0N3B02
*----------------------------------------------------------------------
*----------------------------------------------------------------------
* SPICE Model generated by Murata Manufacturing Co., Ltd.
* Copyright(C) Murata Manufacturing Co., Ltd.
* MURATA P/N : LQP02TN0N3C02
* Property : L = 0.3[nH]
*----------------------------------------------------------------------
* Applicable Conditions:
*   Frequency Range = 1MHz - 20GHz
*   Temperature = 25 degC
*   DC Bias Current = 0 A
*   Small Signal Operation
*----------------------------------------------------------------------
.SUBCKT LQP02TN0N3C02 port1 port2
C1 port1 port2 1.00e-14
L2 port1 1 3.63e-10
R2 1 port2 2.80e-2
R3 port1 port2 2.00e+3
L4 port1 2 5.00e-7
R4 2 port2 800
L5 port1 3 3.50e-8
R5 3 port2 220
L6 port1 4 3.00e-9
R6 4 port2 11.0
L7 port1 5 2.50e-7
R7 5 port2 400
.ENDS LQP02TN0N3C02
*----------------------------------------------------------------------
*----------------------------------------------------------------------
* SPICE Model generated by Murata Manufacturing Co., Ltd.
* Copyright(C) Murata Manufacturing Co., Ltd.
* MURATA P/N : LQP02TN0N4B02
* Property : L = 0.4[nH]
*----------------------------------------------------------------------
* Applicable Conditions:
*   Frequency Range = 1MHz - 20GHz
*   Temperature = 25 degC
*   DC Bias Current = 0 A
*   Small Signal Operation
*----------------------------------------------------------------------
.SUBCKT LQP02TN0N4B02 port1 port2
C1 port1 port2 1.00e-14
L2 port1 1 4.80e-10
R2 1 port2 6.00e-2
R3 port1 port2 2.00e+3
L4 port1 2 5.00e-7
R4 2 port2 800
L5 port1 3 3.50e-8
R5 3 port2 220
L6 port1 4 3.00e-9
R6 4 port2 11.0
L7 port1 5 2.50e-7
R7 5 port2 400
.ENDS LQP02TN0N4B02
*----------------------------------------------------------------------
*----------------------------------------------------------------------
* SPICE Model generated by Murata Manufacturing Co., Ltd.
* Copyright(C) Murata Manufacturing Co., Ltd.
* MURATA P/N : LQP02TN0N4C02
* Property : L = 0.4[nH]
*----------------------------------------------------------------------
* Applicable Conditions:
*   Frequency Range = 1MHz - 20GHz
*   Temperature = 25 degC
*   DC Bias Current = 0 A
*   Small Signal Operation
*----------------------------------------------------------------------
.SUBCKT LQP02TN0N4C02 port1 port2
C1 port1 port2 1.00e-14
L2 port1 1 4.80e-10
R2 1 port2 6.00e-2
R3 port1 port2 2.00e+3
L4 port1 2 5.00e-7
R4 2 port2 800
L5 port1 3 3.50e-8
R5 3 port2 220
L6 port1 4 3.00e-9
R6 4 port2 11.0
L7 port1 5 2.50e-7
R7 5 port2 400
.ENDS LQP02TN0N4C02
*----------------------------------------------------------------------
*----------------------------------------------------------------------
* SPICE Model generated by Murata Manufacturing Co., Ltd.
* Copyright(C) Murata Manufacturing Co., Ltd.
* MURATA P/N : LQP02TN0N5B02
* Property : L = 0.5[nH]
*----------------------------------------------------------------------
* Applicable Conditions:
*   Frequency Range = 1MHz - 20GHz
*   Temperature = 25 degC
*   DC Bias Current = 0 A
*   Small Signal Operation
*----------------------------------------------------------------------
.SUBCKT LQP02TN0N5B02 port1 port2
C1 port1 port2 5.50e-14
L2 port1 1 5.90e-10
R2 1 port2 6.00e-2
R3 port1 port2 1.20e+3
L4 port1 2 5.00e-7
R4 2 port2 800
L5 port1 3 3.50e-8
R5 3 port2 220
L6 port1 4 4.00e-9
R6 4 port2 11.0
L7 port1 5 2.50e-7
R7 5 port2 400
.ENDS LQP02TN0N5B02
*----------------------------------------------------------------------
*----------------------------------------------------------------------
* SPICE Model generated by Murata Manufacturing Co., Ltd.
* Copyright(C) Murata Manufacturing Co., Ltd.
* MURATA P/N : LQP02TN0N5C02
* Property : L = 0.5[nH]
*----------------------------------------------------------------------
* Applicable Conditions:
*   Frequency Range = 1MHz - 20GHz
*   Temperature = 25 degC
*   DC Bias Current = 0 A
*   Small Signal Operation
*----------------------------------------------------------------------
.SUBCKT LQP02TN0N5C02 port1 port2
C1 port1 port2 5.50e-14
L2 port1 1 5.90e-10
R2 1 port2 6.00e-2
R3 port1 port2 1.20e+3
L4 port1 2 5.00e-7
R4 2 port2 800
L5 port1 3 3.50e-8
R5 3 port2 220
L6 port1 4 4.00e-9
R6 4 port2 11.0
L7 port1 5 2.50e-7
R7 5 port2 400
.ENDS LQP02TN0N5C02
*----------------------------------------------------------------------
*----------------------------------------------------------------------
* SPICE Model generated by Murata Manufacturing Co., Ltd.
* Copyright(C) Murata Manufacturing Co., Ltd.
* MURATA P/N : LQP02TN0N6B02
* Property : L = 0.6[nH]
*----------------------------------------------------------------------
* Applicable Conditions:
*   Frequency Range = 1MHz - 20GHz
*   Temperature = 25 degC
*   DC Bias Current = 0 A
*   Small Signal Operation
*----------------------------------------------------------------------
.SUBCKT LQP02TN0N6B02 port1 port2
C1 port1 port2 5.50e-14
L2 port1 1 6.90e-10
R2 1 port2 8.00e-2
R3 port1 port2 1.30e+3
L4 port1 2 3.00e-7
R4 2 port2 800
L5 port1 3 3.50e-8
R5 3 port2 220
L6 port1 4 5.50e-9
R6 4 port2 19.0
L7 port1 5 2.50e-7
R7 5 port2 400
.ENDS LQP02TN0N6B02
*----------------------------------------------------------------------
*----------------------------------------------------------------------
* SPICE Model generated by Murata Manufacturing Co., Ltd.
* Copyright(C) Murata Manufacturing Co., Ltd.
* MURATA P/N : LQP02TN0N6C02
* Property : L = 0.6[nH]
*----------------------------------------------------------------------
* Applicable Conditions:
*   Frequency Range = 1MHz - 20GHz
*   Temperature = 25 degC
*   DC Bias Current = 0 A
*   Small Signal Operation
*----------------------------------------------------------------------
.SUBCKT LQP02TN0N6C02 port1 port2
C1 port1 port2 5.50e-14
L2 port1 1 6.90e-10
R2 1 port2 8.00e-2
R3 port1 port2 1.30e+3
L4 port1 2 3.00e-7
R4 2 port2 800
L5 port1 3 3.50e-8
R5 3 port2 220
L6 port1 4 5.50e-9
R6 4 port2 19.0
L7 port1 5 2.50e-7
R7 5 port2 400
.ENDS LQP02TN0N6C02
*----------------------------------------------------------------------
*----------------------------------------------------------------------
* SPICE Model generated by Murata Manufacturing Co., Ltd.
* Copyright(C) Murata Manufacturing Co., Ltd.
* MURATA P/N : LQP02TN0N7B02
* Property : L = 0.7[nH]
*----------------------------------------------------------------------
* Applicable Conditions:
*   Frequency Range = 1MHz - 20GHz
*   Temperature = 25 degC
*   DC Bias Current = 0 A
*   Small Signal Operation
*----------------------------------------------------------------------
.SUBCKT LQP02TN0N7B02 port1 port2
C1 port1 port2 5.50e-14
L2 port1 1 8.00e-10
R2 1 port2 1.07e-1
R3 port1 port2 1.40e+3
L4 port1 2 1.20e-7
R4 2 port2 800
L5 port1 3 3.50e-8
R5 3 port2 220
L6 port1 4 6.90e-9
R6 4 port2 20.0
L7 port1 5 2.50e-7
R7 5 port2 400
.ENDS LQP02TN0N7B02
*----------------------------------------------------------------------
*----------------------------------------------------------------------
* SPICE Model generated by Murata Manufacturing Co., Ltd.
* Copyright(C) Murata Manufacturing Co., Ltd.
* MURATA P/N : LQP02TN0N7C02
* Property : L = 0.7[nH]
*----------------------------------------------------------------------
* Applicable Conditions:
*   Frequency Range = 1MHz - 20GHz
*   Temperature = 25 degC
*   DC Bias Current = 0 A
*   Small Signal Operation
*----------------------------------------------------------------------
.SUBCKT LQP02TN0N7C02 port1 port2
C1 port1 port2 5.50e-14
L2 port1 1 8.00e-10
R2 1 port2 1.07e-1
R3 port1 port2 1.40e+3
L4 port1 2 1.20e-7
R4 2 port2 800
L5 port1 3 3.50e-8
R5 3 port2 220
L6 port1 4 6.90e-9
R6 4 port2 20.0
L7 port1 5 2.50e-7
R7 5 port2 400
.ENDS LQP02TN0N7C02
*----------------------------------------------------------------------
*----------------------------------------------------------------------
* SPICE Model generated by Murata Manufacturing Co., Ltd.
* Copyright(C) Murata Manufacturing Co., Ltd.
* MURATA P/N : LQP02TN0N8B02
* Property : L = 0.8[nH]
*----------------------------------------------------------------------
* Applicable Conditions:
*   Frequency Range = 1MHz - 20GHz
*   Temperature = 25 degC
*   DC Bias Current = 0 A
*   Small Signal Operation
*----------------------------------------------------------------------
.SUBCKT LQP02TN0N8B02 port1 port2
C1 port1 port2 5.50e-14
L2 port1 1 9.28e-10
R2 1 port2 9.50e-2
R3 port1 port2 1.40e+3
L4 port1 2 8.00e-8
R4 2 port2 800
L5 port1 3 3.50e-8
R5 3 port2 220
L6 port1 4 8.00e-9
R6 4 port2 17.0
L7 port1 5 2.50e-7
R7 5 port2 400
.ENDS LQP02TN0N8B02
*----------------------------------------------------------------------
*----------------------------------------------------------------------
* SPICE Model generated by Murata Manufacturing Co., Ltd.
* Copyright(C) Murata Manufacturing Co., Ltd.
* MURATA P/N : LQP02TN0N8C02
* Property : L = 0.8[nH]
*----------------------------------------------------------------------
* Applicable Conditions:
*   Frequency Range = 1MHz - 20GHz
*   Temperature = 25 degC
*   DC Bias Current = 0 A
*   Small Signal Operation
*----------------------------------------------------------------------
.SUBCKT LQP02TN0N8C02 port1 port2
C1 port1 port2 5.50e-14
L2 port1 1 9.28e-10
R2 1 port2 9.50e-2
R3 port1 port2 1.40e+3
L4 port1 2 8.00e-8
R4 2 port2 800
L5 port1 3 3.50e-8
R5 3 port2 220
L6 port1 4 8.00e-9
R6 4 port2 17.0
L7 port1 5 2.50e-7
R7 5 port2 400
.ENDS LQP02TN0N8C02
*----------------------------------------------------------------------
*----------------------------------------------------------------------
* SPICE Model generated by Murata Manufacturing Co., Ltd.
* Copyright(C) Murata Manufacturing Co., Ltd.
* MURATA P/N : LQP02TN0N9B02
* Property : L = 0.9[nH]
*----------------------------------------------------------------------
* Applicable Conditions:
*   Frequency Range = 1MHz - 20GHz
*   Temperature = 25 degC
*   DC Bias Current = 0 A
*   Small Signal Operation
*----------------------------------------------------------------------
.SUBCKT LQP02TN0N9B02 port1 port2
C1 port1 port2 1.10e-13
L2 port1 1 1.05e-9
R2 1 port2 1.05e-1
R3 port1 port2 1.40e+3
L4 port1 2 1.20e-7
R4 2 port2 800
L5 port1 3 3.50e-8
R5 3 port2 220
L6 port1 4 8.00e-9
R6 4 port2 15.0
L7 port1 5 2.50e-7
R7 5 port2 400
.ENDS LQP02TN0N9B02
*----------------------------------------------------------------------
*----------------------------------------------------------------------
* SPICE Model generated by Murata Manufacturing Co., Ltd.
* Copyright(C) Murata Manufacturing Co., Ltd.
* MURATA P/N : LQP02TN0N9C02
* Property : L = 0.9[nH]
*----------------------------------------------------------------------
* Applicable Conditions:
*   Frequency Range = 1MHz - 20GHz
*   Temperature = 25 degC
*   DC Bias Current = 0 A
*   Small Signal Operation
*----------------------------------------------------------------------
.SUBCKT LQP02TN0N9C02 port1 port2
C1 port1 port2 1.10e-13
L2 port1 1 1.05e-9
R2 1 port2 1.05e-1
R3 port1 port2 1.40e+3
L4 port1 2 1.20e-7
R4 2 port2 800
L5 port1 3 3.50e-8
R5 3 port2 220
L6 port1 4 8.00e-9
R6 4 port2 15.0
L7 port1 5 2.50e-7
R7 5 port2 400
.ENDS LQP02TN0N9C02
*----------------------------------------------------------------------
*----------------------------------------------------------------------
* SPICE Model generated by Murata Manufacturing Co., Ltd.
* Copyright(C) Murata Manufacturing Co., Ltd.
* MURATA P/N : LQP02TN10NH02
* Property : L = 10[nH]
*----------------------------------------------------------------------
* Applicable Conditions:
*   Frequency Range = 1MHz - 20GHz
*   Temperature = 25 degC
*   DC Bias Current = 0 A
*   Small Signal Operation
*----------------------------------------------------------------------
.SUBCKT LQP02TN10NH02 port1 port2
C1 port1 port2 9.30e-14
L2 port1 1 1.17e-8
R2 1 port2 1.50
R3 port1 port2 9.00e+3
L4 port1 2 1.40e-7
R4 2 port2 800
L5 port1 3 3.00e-7
R5 3 port2 400
L6 port1 4 2.00e-7
R6 4 port2 115
L7 port1 5 3.00e-7
R7 5 port2 120
.ENDS LQP02TN10NH02
*----------------------------------------------------------------------
*----------------------------------------------------------------------
* SPICE Model generated by Murata Manufacturing Co., Ltd.
* Copyright(C) Murata Manufacturing Co., Ltd.
* MURATA P/N : LQP02TN10NJ02
* Property : L = 10[nH]
*----------------------------------------------------------------------
* Applicable Conditions:
*   Frequency Range = 1MHz - 20GHz
*   Temperature = 25 degC
*   DC Bias Current = 0 A
*   Small Signal Operation
*----------------------------------------------------------------------
.SUBCKT LQP02TN10NJ02 port1 port2
C1 port1 port2 9.30e-14
L2 port1 1 1.17e-8
R2 1 port2 1.50
R3 port1 port2 9.00e+3
L4 port1 2 1.40e-7
R4 2 port2 800
L5 port1 3 3.00e-7
R5 3 port2 400
L6 port1 4 2.00e-7
R6 4 port2 115
L7 port1 5 3.00e-7
R7 5 port2 120
.ENDS LQP02TN10NJ02
*----------------------------------------------------------------------
*----------------------------------------------------------------------
* SPICE Model generated by Murata Manufacturing Co., Ltd.
* Copyright(C) Murata Manufacturing Co., Ltd.
* MURATA P/N : LQP02TN11NH02
* Property : L = 11[nH]
*----------------------------------------------------------------------
* Applicable Conditions:
*   Frequency Range = 1MHz - 20GHz
*   Temperature = 25 degC
*   DC Bias Current = 0 A
*   Small Signal Operation
*----------------------------------------------------------------------
.SUBCKT LQP02TN11NH02 port1 port2
C1 port1 port2 1.25e-13
L2 port1 1 1.30e-8
R2 1 port2 1.15
R3 port1 port2 8.50e+3
L4 port1 2 1.60e-7
R4 2 port2 800
L5 port1 3 3.00e-7
R5 3 port2 400
L6 port1 4 2.00e-7
R6 4 port2 120
L7 port1 5 3.00e-7
R7 5 port2 100
.ENDS LQP02TN11NH02
*----------------------------------------------------------------------
*----------------------------------------------------------------------
* SPICE Model generated by Murata Manufacturing Co., Ltd.
* Copyright(C) Murata Manufacturing Co., Ltd.
* MURATA P/N : LQP02TN11NJ02
* Property : L = 11[nH]
*----------------------------------------------------------------------
* Applicable Conditions:
*   Frequency Range = 1MHz - 20GHz
*   Temperature = 25 degC
*   DC Bias Current = 0 A
*   Small Signal Operation
*----------------------------------------------------------------------
.SUBCKT LQP02TN11NJ02 port1 port2
C1 port1 port2 1.25e-13
L2 port1 1 1.30e-8
R2 1 port2 1.15
R3 port1 port2 8.50e+3
L4 port1 2 1.60e-7
R4 2 port2 800
L5 port1 3 3.00e-7
R5 3 port2 400
L6 port1 4 2.00e-7
R6 4 port2 120
L7 port1 5 3.00e-7
R7 5 port2 100
.ENDS LQP02TN11NJ02
*----------------------------------------------------------------------
*----------------------------------------------------------------------
* SPICE Model generated by Murata Manufacturing Co., Ltd.
* Copyright(C) Murata Manufacturing Co., Ltd.
* MURATA P/N : LQP02TN12NH02
* Property : L = 12[nH]
*----------------------------------------------------------------------
* Applicable Conditions:
*   Frequency Range = 1MHz - 20GHz
*   Temperature = 25 degC
*   DC Bias Current = 0 A
*   Small Signal Operation
*----------------------------------------------------------------------
.SUBCKT LQP02TN12NH02 port1 port2
C1 port1 port2 1.29e-13
L2 port1 1 1.43e-8
R2 1 port2 1.69
R3 port1 port2 8.50e+3
L4 port1 2 1.80e-7
R4 2 port2 850
L5 port1 3 3.00e-7
R5 3 port2 400
L6 port1 4 2.00e-7
R6 4 port2 90.0
L7 port1 5 3.00e-7
R7 5 port2 100
.ENDS LQP02TN12NH02
*----------------------------------------------------------------------
*----------------------------------------------------------------------
* SPICE Model generated by Murata Manufacturing Co., Ltd.
* Copyright(C) Murata Manufacturing Co., Ltd.
* MURATA P/N : LQP02TN12NJ02
* Property : L = 12[nH]
*----------------------------------------------------------------------
* Applicable Conditions:
*   Frequency Range = 1MHz - 20GHz
*   Temperature = 25 degC
*   DC Bias Current = 0 A
*   Small Signal Operation
*----------------------------------------------------------------------
.SUBCKT LQP02TN12NJ02 port1 port2
C1 port1 port2 1.29e-13
L2 port1 1 1.43e-8
R2 1 port2 1.69
R3 port1 port2 8.50e+3
L4 port1 2 1.80e-7
R4 2 port2 850
L5 port1 3 3.00e-7
R5 3 port2 400
L6 port1 4 2.00e-7
R6 4 port2 90.0
L7 port1 5 3.00e-7
R7 5 port2 100
.ENDS LQP02TN12NJ02
*----------------------------------------------------------------------
*----------------------------------------------------------------------
* SPICE Model generated by Murata Manufacturing Co., Ltd.
* Copyright(C) Murata Manufacturing Co., Ltd.
* MURATA P/N : LQP02TN13NH02
* Property : L = 13[nH]
*----------------------------------------------------------------------
* Applicable Conditions:
*   Frequency Range = 1MHz - 20GHz
*   Temperature = 25 degC
*   DC Bias Current = 0 A
*   Small Signal Operation
*----------------------------------------------------------------------
.SUBCKT LQP02TN13NH02 port1 port2
C1 port1 port2 1.10e-13
L2 port1 1 1.57e-8
R2 1 port2 1.53
R3 port1 port2 9.00e+3
L4 port1 2 1.85e-7
R4 2 port2 850
L5 port1 3 5.00e-7
R5 3 port2 400
L6 port1 4 2.00e-7
R6 4 port2 50.0
L7 port1 5 3.00e-7
R7 5 port2 100
.ENDS LQP02TN13NH02
*----------------------------------------------------------------------
*----------------------------------------------------------------------
* SPICE Model generated by Murata Manufacturing Co., Ltd.
* Copyright(C) Murata Manufacturing Co., Ltd.
* MURATA P/N : LQP02TN13NJ02
* Property : L = 13[nH]
*----------------------------------------------------------------------
* Applicable Conditions:
*   Frequency Range = 1MHz - 20GHz
*   Temperature = 25 degC
*   DC Bias Current = 0 A
*   Small Signal Operation
*----------------------------------------------------------------------
.SUBCKT LQP02TN13NJ02 port1 port2
C1 port1 port2 1.10e-13
L2 port1 1 1.57e-8
R2 1 port2 1.53
R3 port1 port2 9.00e+3
L4 port1 2 1.85e-7
R4 2 port2 850
L5 port1 3 5.00e-7
R5 3 port2 400
L6 port1 4 2.00e-7
R6 4 port2 50.0
L7 port1 5 3.00e-7
R7 5 port2 100
.ENDS LQP02TN13NJ02
*----------------------------------------------------------------------
*----------------------------------------------------------------------
* SPICE Model generated by Murata Manufacturing Co., Ltd.
* Copyright(C) Murata Manufacturing Co., Ltd.
* MURATA P/N : LQP02TN15NH02
* Property : L = 15[nH]
*----------------------------------------------------------------------
* Applicable Conditions:
*   Frequency Range = 1MHz - 20GHz
*   Temperature = 25 degC
*   DC Bias Current = 0 A
*   Small Signal Operation
*----------------------------------------------------------------------
.SUBCKT LQP02TN15NH02 port1 port2
C1 port1 port2 1.20e-13
L2 port1 1 1.84e-8
R2 1 port2 1.95
R3 port1 port2 9.00e+3
L4 port1 2 2.10e-7
R4 2 port2 850
L5 port1 3 5.00e-7
R5 3 port2 400
L6 port1 4 2.00e-7
R6 4 port2 50.0
L7 port1 5 3.00e-7
R7 5 port2 100
.ENDS LQP02TN15NH02
*----------------------------------------------------------------------
*----------------------------------------------------------------------
* SPICE Model generated by Murata Manufacturing Co., Ltd.
* Copyright(C) Murata Manufacturing Co., Ltd.
* MURATA P/N : LQP02TN15NJ02
* Property : L = 15[nH]
*----------------------------------------------------------------------
* Applicable Conditions:
*   Frequency Range = 1MHz - 20GHz
*   Temperature = 25 degC
*   DC Bias Current = 0 A
*   Small Signal Operation
*----------------------------------------------------------------------
.SUBCKT LQP02TN15NJ02 port1 port2
C1 port1 port2 1.20e-13
L2 port1 1 1.84e-8
R2 1 port2 1.95
R3 port1 port2 9.00e+3
L4 port1 2 2.10e-7
R4 2 port2 850
L5 port1 3 5.00e-7
R5 3 port2 400
L6 port1 4 2.00e-7
R6 4 port2 50.0
L7 port1 5 3.00e-7
R7 5 port2 100
.ENDS LQP02TN15NJ02
*----------------------------------------------------------------------
*----------------------------------------------------------------------
* SPICE Model generated by Murata Manufacturing Co., Ltd.
* Copyright(C) Murata Manufacturing Co., Ltd.
* MURATA P/N : LQP02TN16NH02
* Property : L = 16[nH]
*----------------------------------------------------------------------
* Applicable Conditions:
*   Frequency Range = 1MHz - 20GHz
*   Temperature = 25 degC
*   DC Bias Current = 0 A
*   Small Signal Operation
*----------------------------------------------------------------------
.SUBCKT LQP02TN16NH02 port1 port2
C1 port1 port2 1.33e-13
L2 port1 1 2.00e-8
R2 1 port2 1.85
R3 port1 port2 9.00e+3
L4 port1 2 2.00e-7
R4 2 port2 850
L5 port1 3 5.00e-7
R5 3 port2 400
L6 port1 4 2.00e-7
R6 4 port2 50.0
L7 port1 5 3.00e-7
R7 5 port2 100
.ENDS LQP02TN16NH02
*----------------------------------------------------------------------
*----------------------------------------------------------------------
* SPICE Model generated by Murata Manufacturing Co., Ltd.
* Copyright(C) Murata Manufacturing Co., Ltd.
* MURATA P/N : LQP02TN16NJ02
* Property : L = 16[nH]
*----------------------------------------------------------------------
* Applicable Conditions:
*   Frequency Range = 1MHz - 20GHz
*   Temperature = 25 degC
*   DC Bias Current = 0 A
*   Small Signal Operation
*----------------------------------------------------------------------
.SUBCKT LQP02TN16NJ02 port1 port2
C1 port1 port2 1.33e-13
L2 port1 1 2.00e-8
R2 1 port2 1.85
R3 port1 port2 9.00e+3
L4 port1 2 2.00e-7
R4 2 port2 850
L5 port1 3 5.00e-7
R5 3 port2 400
L6 port1 4 2.00e-7
R6 4 port2 50.0
L7 port1 5 3.00e-7
R7 5 port2 100
.ENDS LQP02TN16NJ02
*----------------------------------------------------------------------
*----------------------------------------------------------------------
* SPICE Model generated by Murata Manufacturing Co., Ltd.
* Copyright(C) Murata Manufacturing Co., Ltd.
* MURATA P/N : LQP02TN18NH02
* Property : L = 18[nH]
*----------------------------------------------------------------------
* Applicable Conditions:
*   Frequency Range = 1MHz - 20GHz
*   Temperature = 25 degC
*   DC Bias Current = 0 A
*   Small Signal Operation
*----------------------------------------------------------------------
.SUBCKT LQP02TN18NH02 port1 port2
C1 port1 port2 1.15e-13
L2 port1 1 2.31e-8
R2 1 port2 2.40
R3 port1 port2 9.70e+3
L4 port1 2 2.00e-7
R4 2 port2 850
L5 port1 3 4.30e-7
R5 3 port2 400
L6 port1 4 2.00e-7
R6 4 port2 48.0
L7 port1 5 3.00e-7
R7 5 port2 80.0
L8 port1 6 1.20e-8
C8 6 7 9.36e-15
R8 7 port2 75.6
.ENDS LQP02TN18NH02
*----------------------------------------------------------------------
*----------------------------------------------------------------------
* SPICE Model generated by Murata Manufacturing Co., Ltd.
* Copyright(C) Murata Manufacturing Co., Ltd.
* MURATA P/N : LQP02TN18NJ02
* Property : L = 18[nH]
*----------------------------------------------------------------------
* Applicable Conditions:
*   Frequency Range = 1MHz - 20GHz
*   Temperature = 25 degC
*   DC Bias Current = 0 A
*   Small Signal Operation
*----------------------------------------------------------------------
.SUBCKT LQP02TN18NJ02 port1 port2
C1 port1 port2 1.15e-13
L2 port1 1 2.31e-8
R2 1 port2 2.40
R3 port1 port2 9.70e+3
L4 port1 2 2.00e-7
R4 2 port2 850
L5 port1 3 4.30e-7
R5 3 port2 400
L6 port1 4 2.00e-7
R6 4 port2 48.0
L7 port1 5 3.00e-7
R7 5 port2 80.0
L8 port1 6 1.20e-8
C8 6 7 9.36e-15
R8 7 port2 75.6
.ENDS LQP02TN18NJ02
*----------------------------------------------------------------------
*----------------------------------------------------------------------
* SPICE Model generated by Murata Manufacturing Co., Ltd.
* Copyright(C) Murata Manufacturing Co., Ltd.
* MURATA P/N : LQP02TN1N0B02
* Property : L = 1[nH]
*----------------------------------------------------------------------
* Applicable Conditions:
*   Frequency Range = 1MHz - 20GHz
*   Temperature = 25 degC
*   DC Bias Current = 0 A
*   Small Signal Operation
*----------------------------------------------------------------------
.SUBCKT LQP02TN1N0B02 port1 port2
C1 port1 port2 1.00e-13
L2 port1 1 1.19e-9
R2 1 port2 1.05e-1
R3 port1 port2 1.45e+3
L4 port1 2 2.00e-7
R4 2 port2 800
L5 port1 3 3.50e-8
R5 3 port2 220
L6 port1 4 8.00e-9
R6 4 port2 14.0
L7 port1 5 2.50e-7
R7 5 port2 400
.ENDS LQP02TN1N0B02
*----------------------------------------------------------------------
*----------------------------------------------------------------------
* SPICE Model generated by Murata Manufacturing Co., Ltd.
* Copyright(C) Murata Manufacturing Co., Ltd.
* MURATA P/N : LQP02TN1N0C02
* Property : L = 1[nH]
*----------------------------------------------------------------------
* Applicable Conditions:
*   Frequency Range = 1MHz - 20GHz
*   Temperature = 25 degC
*   DC Bias Current = 0 A
*   Small Signal Operation
*----------------------------------------------------------------------
.SUBCKT LQP02TN1N0C02 port1 port2
C1 port1 port2 1.00e-13
L2 port1 1 1.19e-9
R2 1 port2 1.05e-1
R3 port1 port2 1.45e+3
L4 port1 2 2.00e-7
R4 2 port2 800
L5 port1 3 3.50e-8
R5 3 port2 220
L6 port1 4 8.00e-9
R6 4 port2 14.0
L7 port1 5 2.50e-7
R7 5 port2 400
.ENDS LQP02TN1N0C02
*----------------------------------------------------------------------
*----------------------------------------------------------------------
* SPICE Model generated by Murata Manufacturing Co., Ltd.
* Copyright(C) Murata Manufacturing Co., Ltd.
* MURATA P/N : LQP02TN1N1B02
* Property : L = 1.1[nH]
*----------------------------------------------------------------------
* Applicable Conditions:
*   Frequency Range = 1MHz - 20GHz
*   Temperature = 25 degC
*   DC Bias Current = 0 A
*   Small Signal Operation
*----------------------------------------------------------------------
.SUBCKT LQP02TN1N1B02 port1 port2
C1 port1 port2 9.50e-14
L2 port1 1 1.30e-9
R2 1 port2 1.35e-1
R3 port1 port2 1.60e+3
L4 port1 2 2.00e-7
R4 2 port2 800
L5 port1 3 3.50e-8
R5 3 port2 220
L6 port1 4 9.50e-9
R6 4 port2 14.0
L7 port1 5 2.50e-7
R7 5 port2 400
.ENDS LQP02TN1N1B02
*----------------------------------------------------------------------
*----------------------------------------------------------------------
* SPICE Model generated by Murata Manufacturing Co., Ltd.
* Copyright(C) Murata Manufacturing Co., Ltd.
* MURATA P/N : LQP02TN1N1C02
* Property : L = 1.1[nH]
*----------------------------------------------------------------------
* Applicable Conditions:
*   Frequency Range = 1MHz - 20GHz
*   Temperature = 25 degC
*   DC Bias Current = 0 A
*   Small Signal Operation
*----------------------------------------------------------------------
.SUBCKT LQP02TN1N1C02 port1 port2
C1 port1 port2 9.50e-14
L2 port1 1 1.30e-9
R2 1 port2 1.35e-1
R3 port1 port2 1.60e+3
L4 port1 2 2.00e-7
R4 2 port2 800
L5 port1 3 3.50e-8
R5 3 port2 220
L6 port1 4 9.50e-9
R6 4 port2 14.0
L7 port1 5 2.50e-7
R7 5 port2 400
.ENDS LQP02TN1N1C02
*----------------------------------------------------------------------
*----------------------------------------------------------------------
* SPICE Model generated by Murata Manufacturing Co., Ltd.
* Copyright(C) Murata Manufacturing Co., Ltd.
* MURATA P/N : LQP02TN1N2B02
* Property : L = 1.2[nH]
*----------------------------------------------------------------------
* Applicable Conditions:
*   Frequency Range = 1MHz - 20GHz
*   Temperature = 25 degC
*   DC Bias Current = 0 A
*   Small Signal Operation
*----------------------------------------------------------------------
.SUBCKT LQP02TN1N2B02 port1 port2
C1 port1 port2 8.50e-14
L2 port1 1 1.40e-9
R2 1 port2 1.75e-1
R3 port1 port2 1.60e+3
L4 port1 2 2.00e-7