*----------------------------------------------------------------------
* SPICE Model generated by Murata Manufacturing Co., Ltd.
* Copyright(C) Murata Manufacturing Co., Ltd.
* MURATA P/N : LQW04AN10NH00
* Property : L = 10[nH]
*----------------------------------------------------------------------
* Applicable Conditions:
*   Frequency Range = 1MHz - 20GHz
*   Temperature = 25 degC
*   DC Bias Current = 0 A
*   Small Signal Operation
*----------------------------------------------------------------------
.SUBCKT LQW04AN10NH00 port1 port2
C1 port1 port2 1.84e-14
L2 port1 1 1.03e-8
R2 1 port2 1.80e-1
R3 port1 port2 3.23e+4
L4 port1 2 1.50e-7
R4 2 port2 84.5
L5 port1 3 4.39e-7
R5 3 port2 1.60e+3
L6 port1 4 7.33e-6
R6 4 port2 1.20e+5
.ENDS LQW04AN10NH00
*----------------------------------------------------------------------
*----------------------------------------------------------------------
* SPICE Model generated by Murata Manufacturing Co., Ltd.
* Copyright(C) Murata Manufacturing Co., Ltd.
* MURATA P/N : LQW04AN10NJ00
* Property : L = 10[nH]
*----------------------------------------------------------------------
* Applicable Conditions:
*   Frequency Range = 1MHz - 20GHz
*   Temperature = 25 degC
*   DC Bias Current = 0 A
*   Small Signal Operation
*----------------------------------------------------------------------
.SUBCKT LQW04AN10NJ00 port1 port2
C1 port1 port2 1.84e-14
L2 port1 1 1.03e-8
R2 1 port2 1.80e-1
R3 port1 port2 3.23e+4
L4 port1 2 1.50e-7
R4 2 port2 84.5
L5 port1 3 4.39e-7
R5 3 port2 1.60e+3
L6 port1 4 7.33e-6
R6 4 port2 1.20e+5
.ENDS LQW04AN10NJ00
*----------------------------------------------------------------------
*----------------------------------------------------------------------
* SPICE Model generated by Murata Manufacturing Co., Ltd.
* Copyright(C) Murata Manufacturing Co., Ltd.
* MURATA P/N : LQW04AN11NH00
* Property : L = 11[nH]
*----------------------------------------------------------------------
* Applicable Conditions:
*   Frequency Range = 1MHz - 20GHz
*   Temperature = 25 degC
*   DC Bias Current = 0 A
*   Small Signal Operation
*----------------------------------------------------------------------
.SUBCKT LQW04AN11NH00 port1 port2
C1 port1 port2 1.32e-14
L2 port1 1 1.12e-8
R2 1 port2 2.00e-1
R3 port1 port2 3.68e+4
L4 port1 2 1.69e-7
R4 2 port2 97.7
L5 port1 3 4.49e-7
R5 3 port2 1.64e+3
L6 port1 4 7.87e-6
R6 4 port2 1.48e+5
.ENDS LQW04AN11NH00
*----------------------------------------------------------------------
*----------------------------------------------------------------------
* SPICE Model generated by Murata Manufacturing Co., Ltd.
* Copyright(C) Murata Manufacturing Co., Ltd.
* MURATA P/N : LQW04AN11NJ00
* Property : L = 11[nH]
*----------------------------------------------------------------------
* Applicable Conditions:
*   Frequency Range = 1MHz - 20GHz
*   Temperature = 25 degC
*   DC Bias Current = 0 A
*   Small Signal Operation
*----------------------------------------------------------------------
.SUBCKT LQW04AN11NJ00 port1 port2
C1 port1 port2 1.32e-14
L2 port1 1 1.12e-8
R2 1 port2 2.00e-1
R3 port1 port2 3.68e+4
L4 port1 2 1.69e-7
R4 2 port2 97.7
L5 port1 3 4.49e-7
R5 3 port2 1.64e+3
L6 port1 4 7.87e-6
R6 4 port2 1.48e+5
.ENDS LQW04AN11NJ00
*----------------------------------------------------------------------
*----------------------------------------------------------------------
* SPICE Model generated by Murata Manufacturing Co., Ltd.
* Copyright(C) Murata Manufacturing Co., Ltd.
* MURATA P/N : LQW04AN12NH00
* Property : L = 12[nH]
*----------------------------------------------------------------------
* Applicable Conditions:
*   Frequency Range = 1MHz - 20GHz
*   Temperature = 25 degC
*   DC Bias Current = 0 A
*   Small Signal Operation
*----------------------------------------------------------------------
.SUBCKT LQW04AN12NH00 port1 port2
C1 port1 port2 1.63e-14
L2 port1 1 1.25e-8
R2 1 port2 2.00e-1
R3 port1 port2 3.59e+4
L4 port1 2 1.86e-7
R4 2 port2 106
L5 port1 3 5.12e-7
R5 3 port2 1.90e+3
L6 port1 4 1.06e-5
R6 4 port2 2.01e+5
.ENDS LQW04AN12NH00
*----------------------------------------------------------------------
*----------------------------------------------------------------------
* SPICE Model generated by Murata Manufacturing Co., Ltd.
* Copyright(C) Murata Manufacturing Co., Ltd.
* MURATA P/N : LQW04AN12NJ00
* Property : L = 12[nH]
*----------------------------------------------------------------------
* Applicable Conditions:
*   Frequency Range = 1MHz - 20GHz
*   Temperature = 25 degC
*   DC Bias Current = 0 A
*   Small Signal Operation
*----------------------------------------------------------------------
.SUBCKT LQW04AN12NJ00 port1 port2
C1 port1 port2 1.63e-14
L2 port1 1 1.25e-8
R2 1 port2 2.00e-1
R3 port1 port2 3.59e+4
L4 port1 2 1.86e-7
R4 2 port2 106
L5 port1 3 5.12e-7
R5 3 port2 1.90e+3
L6 port1 4 1.06e-5
R6 4 port2 2.01e+5
.ENDS LQW04AN12NJ00
*----------------------------------------------------------------------
*----------------------------------------------------------------------
* SPICE Model generated by Murata Manufacturing Co., Ltd.
* Copyright(C) Murata Manufacturing Co., Ltd.
* MURATA P/N : LQW04AN13NH00
* Property : L = 13[nH]
*----------------------------------------------------------------------
* Applicable Conditions:
*   Frequency Range = 1MHz - 20GHz
*   Temperature = 25 degC
*   DC Bias Current = 0 A
*   Small Signal Operation
*----------------------------------------------------------------------
.SUBCKT LQW04AN13NH00 port1 port2
C1 port1 port2 1.29e-14
L2 port1 1 1.36e-8
R2 1 port2 2.40e-1
R3 port1 port2 3.79e+4
L4 port1 2 2.10e-7
R4 2 port2 107
L5 port1 3 5.33e-7
R5 3 port2 1.67e+3
L6 port1 4 9.52e-6
R6 4 port2 1.79e+5
.ENDS LQW04AN13NH00
*----------------------------------------------------------------------
*----------------------------------------------------------------------
* SPICE Model generated by Murata Manufacturing Co., Ltd.
* Copyright(C) Murata Manufacturing Co., Ltd.
* MURATA P/N : LQW04AN13NJ00
* Property : L = 13[nH]
*----------------------------------------------------------------------
* Applicable Conditions:
*   Frequency Range = 1MHz - 20GHz
*   Temperature = 25 degC
*   DC Bias Current = 0 A
*   Small Signal Operation
*----------------------------------------------------------------------
.SUBCKT LQW04AN13NJ00 port1 port2
C1 port1 port2 1.29e-14
L2 port1 1 1.36e-8
R2 1 port2 2.40e-1
R3 port1 port2 3.79e+4
L4 port1 2 2.10e-7
R4 2 port2 107
L5 port1 3 5.33e-7
R5 3 port2 1.67e+3
L6 port1 4 9.52e-6
R6 4 port2 1.79e+5
.ENDS LQW04AN13NJ00
*----------------------------------------------------------------------
*----------------------------------------------------------------------
* SPICE Model generated by Murata Manufacturing Co., Ltd.
* Copyright(C) Murata Manufacturing Co., Ltd.
* MURATA P/N : LQW04AN14NH00
* Property : L = 14[nH]
*----------------------------------------------------------------------
* Applicable Conditions:
*   Frequency Range = 1MHz - 20GHz
*   Temperature = 25 degC
*   DC Bias Current = 0 A
*   Small Signal Operation
*----------------------------------------------------------------------
.SUBCKT LQW04AN14NH00 port1 port2
C1 port1 port2 1.97e-14
L2 port1 1 1.45e-8
R2 1 port2 2.40e-1
R3 port1 port2 3.31e+4
L4 port1 2 2.39e-7
R4 2 port2 56.1
L5 port1 3 2.87e-7
R5 3 port2 264
L6 port1 4 1.02e-6
R6 4 port2 9.34e+3
.ENDS LQW04AN14NH00
*----------------------------------------------------------------------
*----------------------------------------------------------------------
* SPICE Model generated by Murata Manufacturing Co., Ltd.
* Copyright(C) Murata Manufacturing Co., Ltd.
* MURATA P/N : LQW04AN14NJ00
* Property : L = 14[nH]
*----------------------------------------------------------------------
* Applicable Conditions:
*   Frequency Range = 1MHz - 20GHz
*   Temperature = 25 degC
*   DC Bias Current = 0 A
*   Small Signal Operation
*----------------------------------------------------------------------
.SUBCKT LQW04AN14NJ00 port1 port2
C1 port1 port2 1.97e-14
L2 port1 1 1.45e-8
R2 1 port2 2.40e-1
R3 port1 port2 3.31e+4
L4 port1 2 2.39e-7
R4 2 port2 56.1
L5 port1 3 2.87e-7
R5 3 port2 264
L6 port1 4 1.02e-6
R6 4 port2 9.34e+3
.ENDS LQW04AN14NJ00
*----------------------------------------------------------------------
*----------------------------------------------------------------------
* SPICE Model generated by Murata Manufacturing Co., Ltd.
* Copyright(C) Murata Manufacturing Co., Ltd.
* MURATA P/N : LQW04AN15NH00
* Property : L = 15[nH]
*----------------------------------------------------------------------
* Applicable Conditions:
*   Frequency Range = 1MHz - 20GHz
*   Temperature = 25 degC
*   DC Bias Current = 0 A
*   Small Signal Operation
*----------------------------------------------------------------------
.SUBCKT LQW04AN15NH00 port1 port2
C1 port1 port2 1.60e-14
L2 port1 1 1.52e-8
R2 1 port2 3.40e-1
R3 port1 port2 4.27e+4
L4 port1 2 2.79e-7
R4 2 port2 230
L5 port1 3 7.80e-7
R5 3 port2 3.43e+3
L6 port1 4 1.57e-5
R6 4 port2 2.97e+5
.ENDS LQW04AN15NH00
*----------------------------------------------------------------------
*----------------------------------------------------------------------
* SPICE Model generated by Murata Manufacturing Co., Ltd.
* Copyright(C) Murata Manufacturing Co., Ltd.
* MURATA P/N : LQW04AN15NJ00
* Property : L = 15[nH]
*----------------------------------------------------------------------
* Applicable Conditions:
*   Frequency Range = 1MHz - 20GHz
*   Temperature = 25 degC
*   DC Bias Current = 0 A
*   Small Signal Operation
*----------------------------------------------------------------------
.SUBCKT LQW04AN15NJ00 port1 port2
C1 port1 port2 1.60e-14
L2 port1 1 1.52e-8
R2 1 port2 3.40e-1
R3 port1 port2 4.27e+4
L4 port1 2 2.79e-7
R4 2 port2 230
L5 port1 3 7.80e-7
R5 3 port2 3.43e+3
L6 port1 4 1.57e-5
R6 4 port2 2.97e+5
.ENDS LQW04AN15NJ00
*----------------------------------------------------------------------
*----------------------------------------------------------------------
* SPICE Model generated by Murata Manufacturing Co., Ltd.
* Copyright(C) Murata Manufacturing Co., Ltd.
* MURATA P/N : LQW04AN16NH00
* Property : L = 16[nH]
*----------------------------------------------------------------------
* Applicable Conditions:
*   Frequency Range = 1MHz - 20GHz
*   Temperature = 25 degC
*   DC Bias Current = 0 A
*   Small Signal Operation
*----------------------------------------------------------------------
.SUBCKT LQW04AN16NH00 port1 port2
C1 port1 port2 1.73e-14
L2 port1 1 1.68e-8
R2 1 port2 2.70e-1
R3 port1 port2 3.81e+4
L4 port1 2 2.43e-7
R4 2 port2 124
L5 port1 3 6.34e-7
R5 3 port2 1.83e+3
L6 port1 4 7.48e-6
R6 4 port2 4.70e+4
.ENDS LQW04AN16NH00
*----------------------------------------------------------------------
*----------------------------------------------------------------------
* SPICE Model generated by Murata Manufacturing Co., Ltd.
* Copyright(C) Murata Manufacturing Co., Ltd.
* MURATA P/N : LQW04AN16NJ00
* Property : L = 16[nH]
*----------------------------------------------------------------------
* Applicable Conditions:
*   Frequency Range = 1MHz - 20GHz
*   Temperature = 25 degC
*   DC Bias Current = 0 A
*   Small Signal Operation
*----------------------------------------------------------------------
.SUBCKT LQW04AN16NJ00 port1 port2
C1 port1 port2 1.73e-14
L2 port1 1 1.68e-8
R2 1 port2 2.70e-1
R3 port1 port2 3.81e+4
L4 port1 2 2.43e-7
R4 2 port2 124
L5 port1 3 6.34e-7
R5 3 port2 1.83e+3
L6 port1 4 7.48e-6
R6 4 port2 4.70e+4
.ENDS LQW04AN16NJ00
*----------------------------------------------------------------------
*----------------------------------------------------------------------
* SPICE Model generated by Murata Manufacturing Co., Ltd.
* Copyright(C) Murata Manufacturing Co., Ltd.
* MURATA P/N : LQW04AN18NH00
* Property : L = 18[nH]
*----------------------------------------------------------------------
* Applicable Conditions:
*   Frequency Range = 1MHz - 20GHz
*   Temperature = 25 degC
*   DC Bias Current = 0 A
*   Small Signal Operation
*----------------------------------------------------------------------
.SUBCKT LQW04AN18NH00 port1 port2
C1 port1 port2 1.82e-14
L2 port1 1 1.84e-8
R2 1 port2 3.80e-1
R3 port1 port2 5.51e+4
L4 port1 2 3.22e-7
R4 2 port2 225
L5 port1 3 8.33e-7
R5 3 port2 3.40e+3
L6 port1 4 1.22e-5
R6 4 port2 2.31e+5
.ENDS LQW04AN18NH00
*----------------------------------------------------------------------
*----------------------------------------------------------------------
* SPICE Model generated by Murata Manufacturing Co., Ltd.
* Copyright(C) Murata Manufacturing Co., Ltd.
* MURATA P/N : LQW04AN18NJ00
* Property : L = 18[nH]
*----------------------------------------------------------------------
* Applicable Conditions:
*   Frequency Range = 1MHz - 20GHz
*   Temperature = 25 degC
*   DC Bias Current = 0 A
*   Small Signal Operation
*----------------------------------------------------------------------
.SUBCKT LQW04AN18NJ00 port1 port2
C1 port1 port2 1.82e-14
L2 port1 1 1.84e-8
R2 1 port2 3.80e-1
R3 port1 port2 5.51e+4
L4 port1 2 3.22e-7
R4 2 port2 225
L5 port1 3 8.33e-7
R5 3 port2 3.40e+3
L6 port1 4 1.22e-5
R6 4 port2 2.31e+5
.ENDS LQW04AN18NJ00
*----------------------------------------------------------------------
*----------------------------------------------------------------------
* SPICE Model generated by Murata Manufacturing Co., Ltd.
* Copyright(C) Murata Manufacturing Co., Ltd.
* MURATA P/N : LQW04AN19NH00
* Property : L = 19[nH]
*----------------------------------------------------------------------
* Applicable Conditions:
*   Frequency Range = 1MHz - 20GHz
*   Temperature = 25 degC
*   DC Bias Current = 0 A
*   Small Signal Operation
*----------------------------------------------------------------------
.SUBCKT LQW04AN19NH00 port1 port2
C1 port1 port2 1.84e-14
L2 port1 1 1.92e-8
R2 1 port2 7.30e-1
R3 port1 port2 5.07e+4
L4 port1 2 3.77e-7
R4 2 port2 405
L5 port1 3 1.16e-6
R5 3 port2 6.42e+3
L6 port1 4 2.88e-5
R6 4 port2 5.44e+5
.ENDS LQW04AN19NH00
*----------------------------------------------------------------------
*----------------------------------------------------------------------
* SPICE Model generated by Murata Manufacturing Co., Ltd.
* Copyright(C) Murata Manufacturing Co., Ltd.
* MURATA P/N : LQW04AN19NJ00
* Property : L = 19[nH]
*----------------------------------------------------------------------
* Applicable Conditions:
*   Frequency Range = 1MHz - 20GHz
*   Temperature = 25 degC
*   DC Bias Current = 0 A
*   Small Signal Operation
*----------------------------------------------------------------------
.SUBCKT LQW04AN19NJ00 port1 port2
C1 port1 port2 1.84e-14
L2 port1 1 1.92e-8
R2 1 port2 7.30e-1
R3 port1 port2 5.07e+4
L4 port1 2 3.77e-7
R4 2 port2 405
L5 port1 3 1.16e-6
R5 3 port2 6.42e+3
L6 port1 4 2.88e-5
R6 4 port2 5.44e+5
.ENDS LQW04AN19NJ00
*----------------------------------------------------------------------
*----------------------------------------------------------------------
* SPICE Model generated by Murata Manufacturing Co., Ltd.
* Copyright(C) Murata Manufacturing Co., Ltd.
* MURATA P/N : LQW04AN1N1C00
* Property : L = 1.1[nH]
*----------------------------------------------------------------------
* Applicable Conditions:
*   Frequency Range = 1MHz - 20GHz
*   Temperature = 25 degC
*   DC Bias Current = 0 A
*   Small Signal Operation
*----------------------------------------------------------------------
.SUBCKT LQW04AN1N1C00 port1 port2
C1 port1 port2 2.21e-14
L2 port1 1 1.06e-9
R2 1 port2 2.00e-2
R3 port1 port2 9.02e+3
L4 port1 2 2.34e-8
R4 2 port2 20.6
L5 port1 3 6.60e-8
R5 3 port2 398
.ENDS LQW04AN1N1C00
*----------------------------------------------------------------------
*----------------------------------------------------------------------
* SPICE Model generated by Murata Manufacturing Co., Ltd.
* Copyright(C) Murata Manufacturing Co., Ltd.
* MURATA P/N : LQW04AN1N1D00
* Property : L = 1.1[nH]
*----------------------------------------------------------------------
* Applicable Conditions:
*   Frequency Range = 1MHz - 20GHz
*   Temperature = 25 degC
*   DC Bias Current = 0 A
*   Small Signal Operation
*----------------------------------------------------------------------
.SUBCKT LQW04AN1N1D00 port1 port2
C1 port1 port2 2.21e-14
L2 port1 1 1.06e-9
R2 1 port2 2.00e-2
R3 port1 port2 9.02e+3
L4 port1 2 2.34e-8
R4 2 port2 20.6
L5 port1 3 6.60e-8
R5 3 port2 398
.ENDS LQW04AN1N1D00
*----------------------------------------------------------------------
*----------------------------------------------------------------------
* SPICE Model generated by Murata Manufacturing Co., Ltd.
* Copyright(C) Murata Manufacturing Co., Ltd.
* MURATA P/N : LQW04AN1N6C00
* Property : L = 1.6[nH]
*----------------------------------------------------------------------
* Applicable Conditions:
*   Frequency Range = 1MHz - 20GHz
*   Temperature = 25 degC
*   DC Bias Current = 0 A
*   Small Signal Operation
*----------------------------------------------------------------------
.SUBCKT LQW04AN1N6C00 port1 port2
C1 port1 port2 7.85e-14
L2 port1 1 1.91e-9
R2 1 port2 4.00e-2
R3 port1 port2 5.27e+3
L4 port1 2 9.69e-9
R4 2 port2 2.49
L5 port1 3 2.75e-8
R5 3 port2 50.0
.ENDS LQW04AN1N6C00
*----------------------------------------------------------------------
*----------------------------------------------------------------------
* SPICE Model generated by Murata Manufacturing Co., Ltd.
* Copyright(C) Murata Manufacturing Co., Ltd.
* MURATA P/N : LQW04AN1N6D00
* Property : L = 1.6[nH]
*----------------------------------------------------------------------
* Applicable Conditions:
*   Frequency Range = 1MHz - 20GHz
*   Temperature = 25 degC
*   DC Bias Current = 0 A
*   Small Signal Operation
*----------------------------------------------------------------------
.SUBCKT LQW04AN1N6D00 port1 port2
C1 port1 port2 7.85e-14
L2 port1 1 1.91e-9
R2 1 port2 4.00e-2
R3 port1 port2 5.27e+3
L4 port1 2 9.69e-9
R4 2 port2 2.49
L5 port1 3 2.75e-8
R5 3 port2 50.0
.ENDS LQW04AN1N6D00
*----------------------------------------------------------------------
*----------------------------------------------------------------------
* SPICE Model generated by Murata Manufacturing Co., Ltd.
* Copyright(C) Murata Manufacturing Co., Ltd.
* MURATA P/N : LQW04AN1N7C00
* Property : L = 1.7[nH]
*----------------------------------------------------------------------
* Applicable Conditions:
*   Frequency Range = 1MHz - 20GHz
*   Temperature = 25 degC
*   DC Bias Current = 0 A
*   Small Signal Operation
*----------------------------------------------------------------------
.SUBCKT LQW04AN1N7C00 port1 port2
C1 port1 port2 7.33e-14
L2 port1 1 2.00e-9
R2 1 port2 4.00e-2
R3 port1 port2 6.05e+3
L4 port1 2 1.25e-8
R4 2 port2 2.49
L5 port1 3 2.75e-8
R5 3 port2 50.0
.ENDS LQW04AN1N7C00
*----------------------------------------------------------------------
*----------------------------------------------------------------------
* SPICE Model generated by Murata Manufacturing Co., Ltd.
* Copyright(C) Murata Manufacturing Co., Ltd.
* MURATA P/N : LQW04AN1N7D00
* Property : L = 1.7[nH]
*----------------------------------------------------------------------
* Applicable Conditions:
*   Frequency Range = 1MHz - 20GHz
*   Temperature = 25 degC
*   DC Bias Current = 0 A
*   Small Signal Operation
*----------------------------------------------------------------------
.SUBCKT LQW04AN1N7D00 port1 port2
C1 port1 port2 7.33e-14
L2 port1 1 2.00e-9
R2 1 port2 4.00e-2
R3 port1 port2 6.05e+3
L4 port1 2 1.25e-8
R4 2 port2 2.49
L5 port1 3 2.75e-8
R5 3 port2 50.0
.ENDS LQW04AN1N7D00
*----------------------------------------------------------------------
*----------------------------------------------------------------------
* SPICE Model generated by Murata Manufacturing Co., Ltd.
* Copyright(C) Murata Manufacturing Co., Ltd.
* MURATA P/N : LQW04AN1N8C00
* Property : L = 1.8[nH]
*----------------------------------------------------------------------
* Applicable Conditions:
*   Frequency Range = 1MHz - 20GHz
*   Temperature = 25 degC
*   DC Bias Current = 0 A
*   Small Signal Operation
*----------------------------------------------------------------------
.SUBCKT LQW04AN1N8C00 port1 port2
C1 port1 port2 1.04e-14
L2 port1 1 1.74e-9
R2 1 port2 4.00e-2
R3 port1 port2 1.91e+3
L4 port1 2 2.67e-8
R4 2 port2 1.74
L5 port1 3 4.58e-8
R5 3 port2 28.5
.ENDS LQW04AN1N8C00
*----------------------------------------------------------------------
*----------------------------------------------------------------------
* SPICE Model generated by Murata Manufacturing Co., Ltd.
* Copyright(C) Murata Manufacturing Co., Ltd.
* MURATA P/N : LQW04AN1N8D00
* Property : L = 1.8[nH]
*----------------------------------------------------------------------
* Applicable Conditions:
*   Frequency Range = 1MHz - 20GHz
*   Temperature = 25 degC
*   DC Bias Current = 0 A
*   Small Signal Operation
*----------------------------------------------------------------------
.SUBCKT LQW04AN1N8D00 port1 port2
C1 port1 port2 1.04e-14
L2 port1 1 1.74e-9
R2 1 port2 4.00e-2
R3 port1 port2 1.91e+3
L4 port1 2 2.67e-8
R4 2 port2 1.74
L5 port1 3 4.58e-8
R5 3 port2 28.5
.ENDS LQW04AN1N8D00
*----------------------------------------------------------------------
*----------------------------------------------------------------------
* SPICE Model generated by Murata Manufacturing Co., Ltd.
* Copyright(C) Murata Manufacturing Co., Ltd.
* MURATA P/N : LQW04AN1N9C00
* Property : L = 1.9[nH]
*----------------------------------------------------------------------
* Applicable Conditions:
*   Frequency Range = 1MHz - 20GHz
*   Temperature = 25 degC
*   DC Bias Current = 0 A
*   Small Signal Operation
*----------------------------------------------------------------------
.SUBCKT LQW04AN1N9C00 port1 port2
C1 port1 port2 6.68e-14
L2 port1 1 2.19e-9
R2 1 port2 8.00e-2
R3 port1 port2 6.05e+3
L4 port1 2 1.22e-8
R4 2 port2 2.49
L5 port1 3 2.95e-8
R5 3 port2 65.9
.ENDS LQW04AN1N9C00
*----------------------------------------------------------------------
*----------------------------------------------------------------------
* SPICE Model generated by Murata Manufacturing Co., Ltd.
* Copyright(C) Murata Manufacturing Co., Ltd.
* MURATA P/N : LQW04AN1N9D00
* Property : L = 1.9[nH]
*----------------------------------------------------------------------
* Applicable Conditions:
*   Frequency Range = 1MHz - 20GHz
*   Temperature = 25 degC
*   DC Bias Current = 0 A
*   Small Signal Operation
*----------------------------------------------------------------------
.SUBCKT LQW04AN1N9D00 port1 port2
C1 port1 port2 6.68e-14
L2 port1 1 2.19e-9
R2 1 port2 8.00e-2
R3 port1 port2 6.05e+3
L4 port1 2 1.22e-8
R4 2 port2 2.49
L5 port1 3 2.95e-8
R5 3 port2 65.9
.ENDS LQW04AN1N9D00
*----------------------------------------------------------------------
*----------------------------------------------------------------------
* SPICE Model generated by Murata Manufacturing Co., Ltd.
* Copyright(C) Murata Manufacturing Co., Ltd.
* MURATA P/N : LQW04AN20NH00
* Property : L = 20[nH]
*----------------------------------------------------------------------
* Applicable Conditions:
*   Frequency Range = 1MHz - 20GHz
*   Temperature = 25 degC
*   DC Bias Current = 0 A
*   Small Signal Operation
*----------------------------------------------------------------------
.SUBCKT LQW04AN20NH00 port1 port2
C1 port1 port2 1.35e-14
L2 port1 1 2.06e-8
R2 1 port2 4.00e-1
R3 port1 port2 5.64e+4
L4 port1 2 3.51e-7
R4 2 port2 245
L5 port1 3 9.15e-7
R5 3 port2 3.45e+3
L6 port1 4 1.38e-5
R6 4 port2 2.35e+5
L7 port1 5 5.57e-8
C7 5 6 1.19e-15
R7 6 port2 172
.ENDS LQW04AN20NH00
*----------------------------------------------------------------------
*----------------------------------------------------------------------
* SPICE Model generated by Murata Manufacturing Co., Ltd.
* Copyright(C) Murata Manufacturing Co., Ltd.
* MURATA P/N : LQW04AN20NJ00
* Property : L = 20[nH]
*----------------------------------------------------------------------
* Applicable Conditions:
*   Frequency Range = 1MHz - 20GHz
*   Temperature = 25 degC
*   DC Bias Current = 0 A
*   Small Signal Operation
*----------------------------------------------------------------------
.SUBCKT LQW04AN20NJ00 port1 port2
C1 port1 port2 1.35e-14
L2 port1 1 2.06e-8
R2 1 port2 4.00e-1
R3 port1 port2 5.64e+4
L4 port1 2 3.51e-7
R4 2 port2 245
L5 port1 3 9.15e-7
R5 3 port2 3.45e+3
L6 port1 4 1.38e-5
R6 4 port2 2.35e+5
L7 port1 5 5.57e-8
C7 5 6 1.19e-15
R7 6 port2 172
.ENDS LQW04AN20NJ00
*----------------------------------------------------------------------
*----------------------------------------------------------------------
* SPICE Model generated by Murata Manufacturing Co., Ltd.
* Copyright(C) Murata Manufacturing Co., Ltd.
* MURATA P/N : LQW04AN22NH00
* Property : L = 22[nH]
*----------------------------------------------------------------------
* Applicable Conditions:
*   Frequency Range = 1MHz - 20GHz
*   Temperature = 25 degC
*   DC Bias Current = 0 A
*   Small Signal Operation
*----------------------------------------------------------------------
.SUBCKT LQW04AN22NH00 port1 port2
C1 port1 port2 1.23e-14
L2 port1 1 2.27e-8
R2 1 port2 4.50e-1
R3 port1 port2 7.04e+4
L4 port1 2 3.64e-7
R4 2 port2 252
L5 port1 3 1.03e-6
R5 3 port2 4.46e+3
L6 port1 4 1.50e-5
R6 4 port2 2.84e+5
L7 port1 5 5.31e-8
C7 5 6 1.43e-15
R7 6 port2 221
.ENDS LQW04AN22NH00
*----------------------------------------------------------------------
*----------------------------------------------------------------------
* SPICE Model generated by Murata Manufacturing Co., Ltd.
* Copyright(C) Murata Manufacturing Co., Ltd.
* MURATA P/N : LQW04AN22NJ00
* Property : L = 22[nH]
*----------------------------------------------------------------------
* Applicable Conditions:
*   Frequency Range = 1MHz - 20GHz
*   Temperature = 25 degC
*   DC Bias Current = 0 A
*   Small Signal Operation
*----------------------------------------------------------------------
.SUBCKT LQW04AN22NJ00 port1 port2
C1 port1 port2 1.23e-14
L2 port1 1 2.27e-8
R2 1 port2 4.50e-1
R3 port1 port2 7.04e+4
L4 port1 2 3.64e-7
R4 2 port2 252
L5 port1 3 1.03e-6
R5 3 port2 4.46e+3
L6 port1 4 1.50e-5
R6 4 port2 2.84e+5
L7 port1 5 5.31e-8
C7 5 6 1.43e-15
R7 6 port2 221
.ENDS LQW04AN22NJ00
*----------------------------------------------------------------------
*----------------------------------------------------------------------
* SPICE Model generated by Murata Manufacturing Co., Ltd.
* Copyright(C) Murata Manufacturing Co., Ltd.
* MURATA P/N : LQW04AN23NH00
* Property : L = 23[nH]
*----------------------------------------------------------------------
* Applicable Conditions:
*   Frequency Range = 1MHz - 20GHz
*   Temperature = 25 degC
*   DC Bias Current = 0 A
*   Small Signal Operation
*----------------------------------------------------------------------
.SUBCKT LQW04AN23NH00 port1 port2
C1 port1 port2 1.12e-14
L2 port1 1 2.33e-8
R2 1 port2 8.00e-1
R3 port1 port2 6.79e+4
L4 port1 2 4.74e-7
R4 2 port2 477
L5 port1 3 1.41e-6
R5 3 port2 7.46e+3
L6 port1 4 1.46e-5
R6 4 port2 2.75e+5
L7 port1 5 2.67e-8
C7 5 6 3.10e-15
R7 6 port2 55.6
.ENDS LQW04AN23NH00
*----------------------------------------------------------------------
*----------------------------------------------------------------------
* SPICE Model generated by Murata Manufacturing Co., Ltd.
* Copyright(C) Murata Manufacturing Co., Ltd.
* MURATA P/N : LQW04AN23NJ00
* Property : L = 23[nH]
*----------------------------------------------------------------------
* Applicable Conditions:
*   Frequency Range = 1MHz - 20GHz
*   Temperature = 25 degC
*   DC Bias Current = 0 A
*   Small Signal Operation
*----------------------------------------------------------------------
.SUBCKT LQW04AN23NJ00 port1 port2
C1 port1 port2 1.12e-14
L2 port1 1 2.33e-8
R2 1 port2 8.00e-1
R3 port1 port2 6.79e+4
L4 port1 2 4.74e-7
R4 2 port2 477
L5 port1 3 1.41e-6
R5 3 port2 7.46e+3
L6 port1 4 1.46e-5
R6 4 port2 2.75e+5
L7 port1 5 2.67e-8
C7 5 6 3.10e-15
R7 6 port2 55.6
.ENDS LQW04AN23NJ00
*----------------------------------------------------------------------
*----------------------------------------------------------------------
* SPICE Model generated by Murata Manufacturing Co., Ltd.
* Copyright(C) Murata Manufacturing Co., Ltd.
* MURATA P/N : LQW04AN24NH00
* Property : L = 24[nH]
*----------------------------------------------------------------------
* Applicable Conditions:
*   Frequency Range = 1MHz - 20GHz
*   Temperature = 25 degC
*   DC Bias Current = 0 A
*   Small Signal Operation
*----------------------------------------------------------------------
.SUBCKT LQW04AN24NH00 port1 port2
C1 port1 port2 1.33e-14
L2 port1 1 2.41e-8
R2 1 port2 8.00e-1
R3 port1 port2 6.85e+4
L4 port1 2 4.71e-7
R4 2 port2 476
L5 port1 3 1.46e-6
R5 3 port2 7.63e+3
L6 port1 4 1.51e-5
R6 4 port2 2.85e+5
L7 port1 5 4.09e-8
C7 5 6 2.07e-15
R7 6 port2 129
.ENDS LQW04AN24NH00
*----------------------------------------------------------------------
*----------------------------------------------------------------------
* SPICE Model generated by Murata Manufacturing Co., Ltd.
* Copyright(C) Murata Manufacturing Co., Ltd.
* MURATA P/N : LQW04AN24NJ00
* Property : L = 24[nH]
*----------------------------------------------------------------------
* Applicable Conditions:
*   Frequency Range = 1MHz - 20GHz
*   Temperature = 25 degC
*   DC Bias Current = 0 A
*   Small Signal Operation
*----------------------------------------------------------------------
.SUBCKT LQW04AN24NJ00 port1 port2
C1 port1 port2 1.33e-14
L2 port1 1 2.41e-8
R2 1 port2 8.00e-1
R3 port1 port2 6.85e+4
L4 port1 2 4.71e-7
R4 2 port2 476
L5 port1 3 1.46e-6
R5 3 port2 7.63e+3
L6 port1 4 1.51e-5
R6 4 port2 2.85e+5
L7 port1 5 4.09e-8
C7 5 6 2.07e-15
R7 6 port2 129
.ENDS LQW04AN24NJ00
*----------------------------------------------------------------------