*----------------------------------------------------------------------
* SPICE Model generated by Murata Manufacturing Co., Ltd.
* Copyright(C) Murata Manufacturing Co., Ltd.
* MURATA P/N : LQW18AN10NG8Z
* Property : L = 10[nH]
*----------------------------------------------------------------------
* Applicable Conditions:
*   Frequency Range = 1MHz - 20GHz
*   Temperature = 25 degC
*   DC Bias Current = 0 A
*   Small Signal Operation
*----------------------------------------------------------------------
.SUBCKT LQW18AN10NG8Z port1 port2
C1 port1 port2 6.21e-14
L2 port1 1 9.99e-9
R2 1 port2 4.30e-2
R3 port1 port2 2.28e+4
L4 port1 2 2.96e-7
R4 2 port2 97.8
L5 port1 3 6.01e-7
R5 3 port2 1.35e+3
L6 port1 4 2.47e-6
C6 4 5 4.91e-17
R6 5 port2 281
.ENDS LQW18AN10NG8Z
*----------------------------------------------------------------------
*----------------------------------------------------------------------
* SPICE Model generated by Murata Manufacturing Co., Ltd.
* Copyright(C) Murata Manufacturing Co., Ltd.
* MURATA P/N : LQW18AN10NJ8Z
* Property : L = 10[nH]
*----------------------------------------------------------------------
* Applicable Conditions:
*   Frequency Range = 1MHz - 20GHz
*   Temperature = 25 degC
*   DC Bias Current = 0 A
*   Small Signal Operation
*----------------------------------------------------------------------
.SUBCKT LQW18AN10NJ8Z port1 port2
C1 port1 port2 6.21e-14
L2 port1 1 9.99e-9
R2 1 port2 4.30e-2
R3 port1 port2 2.28e+4
L4 port1 2 2.96e-7
R4 2 port2 97.8
L5 port1 3 6.01e-7
R5 3 port2 1.35e+3
L6 port1 4 2.47e-6
C6 4 5 4.91e-17
R6 5 port2 281
.ENDS LQW18AN10NJ8Z
*----------------------------------------------------------------------
*----------------------------------------------------------------------
* SPICE Model generated by Murata Manufacturing Co., Ltd.
* Copyright(C) Murata Manufacturing Co., Ltd.
* MURATA P/N : LQW18AN11NG8Z
* Property : L = 11[nH]
*----------------------------------------------------------------------
* Applicable Conditions:
*   Frequency Range = 1MHz - 20GHz
*   Temperature = 25 degC
*   DC Bias Current = 0 A
*   Small Signal Operation
*----------------------------------------------------------------------
.SUBCKT LQW18AN11NG8Z port1 port2
C1 port1 port2 6.65e-14
L2 port1 1 1.12e-8
R2 1 port2 4.30e-2
R3 port1 port2 2.28e+4
L4 port1 2 2.48e-7
R4 2 port2 65.5
L5 port1 3 6.13e-7
R5 3 port2 1.30e+3
L6 port1 4 2.47e-6
C6 4 5 4.91e-17
R6 5 port2 281
.ENDS LQW18AN11NG8Z
*----------------------------------------------------------------------
*----------------------------------------------------------------------
* SPICE Model generated by Murata Manufacturing Co., Ltd.
* Copyright(C) Murata Manufacturing Co., Ltd.
* MURATA P/N : LQW18AN11NJ8Z
* Property : L = 11[nH]
*----------------------------------------------------------------------
* Applicable Conditions:
*   Frequency Range = 1MHz - 20GHz
*   Temperature = 25 degC
*   DC Bias Current = 0 A
*   Small Signal Operation
*----------------------------------------------------------------------
.SUBCKT LQW18AN11NJ8Z port1 port2
C1 port1 port2 6.65e-14
L2 port1 1 1.12e-8
R2 1 port2 4.30e-2
R3 port1 port2 2.28e+4
L4 port1 2 2.48e-7
R4 2 port2 65.5
L5 port1 3 6.13e-7
R5 3 port2 1.30e+3
L6 port1 4 2.47e-6
C6 4 5 4.91e-17
R6 5 port2 281
.ENDS LQW18AN11NJ8Z
*----------------------------------------------------------------------
*----------------------------------------------------------------------
* SPICE Model generated by Murata Manufacturing Co., Ltd.
* Copyright(C) Murata Manufacturing Co., Ltd.
* MURATA P/N : LQW18AN12NG8Z
* Property : L = 12[nH]
*----------------------------------------------------------------------
* Applicable Conditions:
*   Frequency Range = 1MHz - 20GHz
*   Temperature = 25 degC
*   DC Bias Current = 0 A
*   Small Signal Operation
*----------------------------------------------------------------------
.SUBCKT LQW18AN12NG8Z port1 port2
C1 port1 port2 4.39e-14
L2 port1 1 1.20e-8
R2 1 port2 5.30e-2
R3 port1 port2 2.28e+4
L4 port1 2 2.98e-7
R4 2 port2 119
L5 port1 3 8.48e-7
R5 3 port2 3.46e+3
L6 port1 4 2.47e-6
C6 4 5 4.91e-17
R6 5 port2 281
.ENDS LQW18AN12NG8Z
*----------------------------------------------------------------------
*----------------------------------------------------------------------
* SPICE Model generated by Murata Manufacturing Co., Ltd.
* Copyright(C) Murata Manufacturing Co., Ltd.
* MURATA P/N : LQW18AN12NJ8Z
* Property : L = 12[nH]
*----------------------------------------------------------------------
* Applicable Conditions:
*   Frequency Range = 1MHz - 20GHz
*   Temperature = 25 degC
*   DC Bias Current = 0 A
*   Small Signal Operation
*----------------------------------------------------------------------
.SUBCKT LQW18AN12NJ8Z port1 port2
C1 port1 port2 4.39e-14
L2 port1 1 1.20e-8
R2 1 port2 5.30e-2
R3 port1 port2 2.28e+4
L4 port1 2 2.98e-7
R4 2 port2 119
L5 port1 3 8.48e-7
R5 3 port2 3.46e+3
L6 port1 4 2.47e-6
C6 4 5 4.91e-17
R6 5 port2 281
.ENDS LQW18AN12NJ8Z
*----------------------------------------------------------------------
*----------------------------------------------------------------------
* SPICE Model generated by Murata Manufacturing Co., Ltd.
* Copyright(C) Murata Manufacturing Co., Ltd.
* MURATA P/N : LQW18AN13NG8Z
* Property : L = 13[nH]
*----------------------------------------------------------------------
* Applicable Conditions:
*   Frequency Range = 1MHz - 20GHz
*   Temperature = 25 degC
*   DC Bias Current = 0 A
*   Small Signal Operation
*----------------------------------------------------------------------
.SUBCKT LQW18AN13NG8Z port1 port2
C1 port1 port2 5.04e-14
L2 port1 1 1.32e-8
R2 1 port2 5.30e-2
R3 port1 port2 2.28e+4
L4 port1 2 2.33e-7
R4 2 port2 45.2
L5 port1 3 5.84e-7
R5 3 port2 1.19e+3
L6 port1 4 2.47e-6
C6 4 5 6.62e-17
R6 5 port2 281
.ENDS LQW18AN13NG8Z
*----------------------------------------------------------------------
*----------------------------------------------------------------------
* SPICE Model generated by Murata Manufacturing Co., Ltd.
* Copyright(C) Murata Manufacturing Co., Ltd.
* MURATA P/N : LQW18AN13NJ8Z
* Property : L = 13[nH]
*----------------------------------------------------------------------
* Applicable Conditions:
*   Frequency Range = 1MHz - 20GHz
*   Temperature = 25 degC
*   DC Bias Current = 0 A
*   Small Signal Operation
*----------------------------------------------------------------------
.SUBCKT LQW18AN13NJ8Z port1 port2
C1 port1 port2 5.04e-14
L2 port1 1 1.32e-8
R2 1 port2 5.30e-2
R3 port1 port2 2.28e+4
L4 port1 2 2.33e-7
R4 2 port2 45.2
L5 port1 3 5.84e-7
R5 3 port2 1.19e+3
L6 port1 4 2.47e-6
C6 4 5 6.62e-17
R6 5 port2 281
.ENDS LQW18AN13NJ8Z
*----------------------------------------------------------------------
*----------------------------------------------------------------------
* SPICE Model generated by Murata Manufacturing Co., Ltd.
* Copyright(C) Murata Manufacturing Co., Ltd.
* MURATA P/N : LQW18AN15NG8Z
* Property : L = 15[nH]
*----------------------------------------------------------------------
* Applicable Conditions:
*   Frequency Range = 1MHz - 20GHz
*   Temperature = 25 degC
*   DC Bias Current = 0 A
*   Small Signal Operation
*----------------------------------------------------------------------
.SUBCKT LQW18AN15NG8Z port1 port2
C1 port1 port2 1.83e-14
L2 port1 1 1.51e-8
R2 1 port2 6.20e-2
R3 port1 port2 2.28e+4
L4 port1 2 3.87e-7
R4 2 port2 98.7
L5 port1 3 7.74e-7
R5 3 port2 1.11e+3
L6 port1 4 2.47e-6
C6 4 5 4.91e-17
R6 5 port2 281
.ENDS LQW18AN15NG8Z
*----------------------------------------------------------------------
*----------------------------------------------------------------------
* SPICE Model generated by Murata Manufacturing Co., Ltd.
* Copyright(C) Murata Manufacturing Co., Ltd.
* MURATA P/N : LQW18AN15NJ8Z
* Property : L = 15[nH]
*----------------------------------------------------------------------
* Applicable Conditions:
*   Frequency Range = 1MHz - 20GHz
*   Temperature = 25 degC
*   DC Bias Current = 0 A
*   Small Signal Operation
*----------------------------------------------------------------------
.SUBCKT LQW18AN15NJ8Z port1 port2
C1 port1 port2 1.83e-14
L2 port1 1 1.51e-8
R2 1 port2 6.20e-2
R3 port1 port2 2.28e+4
L4 port1 2 3.87e-7
R4 2 port2 98.7
L5 port1 3 7.74e-7
R5 3 port2 1.11e+3
L6 port1 4 2.47e-6
C6 4 5 4.91e-17
R6 5 port2 281
.ENDS LQW18AN15NJ8Z
*----------------------------------------------------------------------
*----------------------------------------------------------------------
* SPICE Model generated by Murata Manufacturing Co., Ltd.
* Copyright(C) Murata Manufacturing Co., Ltd.
* MURATA P/N : LQW18AN16NG8Z
* Property : L = 16[nH]
*----------------------------------------------------------------------
* Applicable Conditions:
*   Frequency Range = 1MHz - 20GHz
*   Temperature = 25 degC
*   DC Bias Current = 0 A
*   Small Signal Operation
*----------------------------------------------------------------------
.SUBCKT LQW18AN16NG8Z port1 port2
C1 port1 port2 3.74e-14
L2 port1 1 1.62e-8
R2 1 port2 6.20e-2
R3 port1 port2 2.28e+4
L4 port1 2 4.34e-7
R4 2 port2 98.7
L5 port1 3 7.56e-7
R5 3 port2 1.11e+3
L6 port1 4 2.47e-6
C6 4 5 1.15e-16
R6 5 port2 281
L7 port1 6 8.43e-8
C7 6 7 1.59e-15
R7 7 port2 365
.ENDS LQW18AN16NG8Z
*----------------------------------------------------------------------
*----------------------------------------------------------------------
* SPICE Model generated by Murata Manufacturing Co., Ltd.
* Copyright(C) Murata Manufacturing Co., Ltd.
* MURATA P/N : LQW18AN16NJ8Z
* Property : L = 16[nH]
*----------------------------------------------------------------------
* Applicable Conditions:
*   Frequency Range = 1MHz - 20GHz
*   Temperature = 25 degC
*   DC Bias Current = 0 A
*   Small Signal Operation
*----------------------------------------------------------------------
.SUBCKT LQW18AN16NJ8Z port1 port2
C1 port1 port2 3.74e-14
L2 port1 1 1.62e-8
R2 1 port2 6.20e-2
R3 port1 port2 2.28e+4
L4 port1 2 4.34e-7
R4 2 port2 98.7
L5 port1 3 7.56e-7
R5 3 port2 1.11e+3
L6 port1 4 2.47e-6
C6 4 5 1.15e-16
R6 5 port2 281
L7 port1 6 8.43e-8
C7 6 7 1.59e-15
R7 7 port2 365
.ENDS LQW18AN16NJ8Z
*----------------------------------------------------------------------
*----------------------------------------------------------------------
* SPICE Model generated by Murata Manufacturing Co., Ltd.
* Copyright(C) Murata Manufacturing Co., Ltd.
* MURATA P/N : LQW18AN17NG8Z
* Property : L = 17[nH]
*----------------------------------------------------------------------
* Applicable Conditions:
*   Frequency Range = 1MHz - 20GHz
*   Temperature = 25 degC
*   DC Bias Current = 0 A
*   Small Signal Operation
*----------------------------------------------------------------------
.SUBCKT LQW18AN17NG8Z port1 port2
C1 port1 port2 5.41e-14
L2 port1 1 1.74e-8
R2 1 port2 6.64e-2
R3 port1 port2 2.28e+4
L4 port1 2 4.14e-7
R4 2 port2 98.7
L5 port1 3 7.39e-7
R5 3 port2 1.11e+3
L6 port1 4 2.47e-6
C6 4 5 8.53e-17
R6 5 port2 281
L7 port1 6 8.43e-8
C7 6 7 1.18e-15
R7 7 port2 365
.ENDS LQW18AN17NG8Z
*----------------------------------------------------------------------
*----------------------------------------------------------------------
* SPICE Model generated by Murata Manufacturing Co., Ltd.
* Copyright(C) Murata Manufacturing Co., Ltd.
* MURATA P/N : LQW18AN17NJ8Z
* Property : L = 17[nH]
*----------------------------------------------------------------------
* Applicable Conditions:
*   Frequency Range = 1MHz - 20GHz
*   Temperature = 25 degC
*   DC Bias Current = 0 A
*   Small Signal Operation
*----------------------------------------------------------------------
.SUBCKT LQW18AN17NJ8Z port1 port2
C1 port1 port2 5.41e-14
L2 port1 1 1.74e-8
R2 1 port2 6.64e-2
R3 port1 port2 2.28e+4
L4 port1 2 4.14e-7
R4 2 port2 98.7
L5 port1 3 7.39e-7
R5 3 port2 1.11e+3
L6 port1 4 2.47e-6
C6 4 5 8.53e-17
R6 5 port2 281
L7 port1 6 8.43e-8
C7 6 7 1.18e-15
R7 7 port2 365
.ENDS LQW18AN17NJ8Z
*----------------------------------------------------------------------
*----------------------------------------------------------------------
* SPICE Model generated by Murata Manufacturing Co., Ltd.
* Copyright(C) Murata Manufacturing Co., Ltd.
* MURATA P/N : LQW18AN18NG8Z
* Property : L = 18[nH]
*----------------------------------------------------------------------
* Applicable Conditions:
*   Frequency Range = 1MHz - 20GHz
*   Temperature = 25 degC
*   DC Bias Current = 0 A
*   Small Signal Operation
*----------------------------------------------------------------------
.SUBCKT LQW18AN18NG8Z port1 port2
C1 port1 port2 4.10e-14
L2 port1 1 1.82e-8
R2 1 port2 6.20e-2
R3 port1 port2 2.28e+4
L4 port1 2 4.49e-7
R4 2 port2 128
L5 port1 3 1.09e-6
R5 3 port2 2.10e+3
L6 port1 4 2.47e-6
C6 4 5 1.45e-16
R6 5 port2 281
L7 port1 6 8.43e-8
C7 6 7 1.29e-15
R7 7 port2 365
.ENDS LQW18AN18NG8Z
*----------------------------------------------------------------------
*----------------------------------------------------------------------
* SPICE Model generated by Murata Manufacturing Co., Ltd.
* Copyright(C) Murata Manufacturing Co., Ltd.
* MURATA P/N : LQW18AN18NJ8Z
* Property : L = 18[nH]
*----------------------------------------------------------------------
* Applicable Conditions:
*   Frequency Range = 1MHz - 20GHz
*   Temperature = 25 degC
*   DC Bias Current = 0 A
*   Small Signal Operation
*----------------------------------------------------------------------
.SUBCKT LQW18AN18NJ8Z port1 port2
C1 port1 port2 4.10e-14
L2 port1 1 1.82e-8
R2 1 port2 6.20e-2
R3 port1 port2 2.28e+4
L4 port1 2 4.49e-7
R4 2 port2 128
L5 port1 3 1.09e-6
R5 3 port2 2.10e+3
L6 port1 4 2.47e-6
C6 4 5 1.45e-16
R6 5 port2 281
L7 port1 6 8.43e-8
C7 6 7 1.29e-15
R7 7 port2 365
.ENDS LQW18AN18NJ8Z
*----------------------------------------------------------------------
*----------------------------------------------------------------------
* SPICE Model generated by Murata Manufacturing Co., Ltd.
* Copyright(C) Murata Manufacturing Co., Ltd.
* MURATA P/N : LQW18AN19NG8Z
* Property : L = 19[nH]
*----------------------------------------------------------------------
* Applicable Conditions:
*   Frequency Range = 1MHz - 20GHz
*   Temperature = 25 degC
*   DC Bias Current = 0 A
*   Small Signal Operation
*----------------------------------------------------------------------
.SUBCKT LQW18AN19NG8Z port1 port2
C1 port1 port2 6.50e-14
L2 port1 1 1.95e-8
R2 1 port2 6.20e-2
R3 port1 port2 2.28e+4
L4 port1 2 3.51e-7
R4 2 port2 49.5
L5 port1 3 7.84e-7
R5 3 port2 897
L6 port1 4 2.47e-6
C6 4 5 1.05e-16
R6 5 port2 281
L7 port1 6 8.43e-8
C7 6 7 1.07e-15
R7 7 port2 365
.ENDS LQW18AN19NG8Z
*----------------------------------------------------------------------
*----------------------------------------------------------------------
* SPICE Model generated by Murata Manufacturing Co., Ltd.
* Copyright(C) Murata Manufacturing Co., Ltd.
* MURATA P/N : LQW18AN19NJ8Z
* Property : L = 19[nH]
*----------------------------------------------------------------------
* Applicable Conditions:
*   Frequency Range = 1MHz - 20GHz
*   Temperature = 25 degC
*   DC Bias Current = 0 A
*   Small Signal Operation
*----------------------------------------------------------------------
.SUBCKT LQW18AN19NJ8Z port1 port2
C1 port1 port2 6.50e-14
L2 port1 1 1.95e-8
R2 1 port2 6.20e-2
R3 port1 port2 2.28e+4
L4 port1 2 3.51e-7
R4 2 port2 49.5
L5 port1 3 7.84e-7
R5 3 port2 897
L6 port1 4 2.47e-6
C6 4 5 1.05e-16
R6 5 port2 281
L7 port1 6 8.43e-8
C7 6 7 1.07e-15
R7 7 port2 365
.ENDS LQW18AN19NJ8Z
*----------------------------------------------------------------------
*----------------------------------------------------------------------
* SPICE Model generated by Murata Manufacturing Co., Ltd.
* Copyright(C) Murata Manufacturing Co., Ltd.
* MURATA P/N : LQW18AN22NG8Z
* Property : L = 22[nH]
*----------------------------------------------------------------------
* Applicable Conditions:
*   Frequency Range = 1MHz - 20GHz
*   Temperature = 25 degC
*   DC Bias Current = 0 A
*   Small Signal Operation
*----------------------------------------------------------------------
.SUBCKT LQW18AN22NG8Z port1 port2
C1 port1 port2 4.82e-14
L2 port1 1 2.29e-8
R2 1 port2 7.10e-2
R3 port1 port2 2.28e+4
L4 port1 2 4.43e-7
R4 2 port2 71.1
L5 port1 3 1.04e-6
R5 3 port2 1.52e+3
L6 port1 4 2.47e-6
C6 4 5 1.55e-16
R6 5 port2 281
L7 port1 6 8.43e-8
C7 6 7 1.45e-15
R7 7 port2 365
.ENDS LQW18AN22NG8Z
*----------------------------------------------------------------------
*----------------------------------------------------------------------
* SPICE Model generated by Murata Manufacturing Co., Ltd.
* Copyright(C) Murata Manufacturing Co., Ltd.
* MURATA P/N : LQW18AN22NJ8Z
* Property : L = 22[nH]
*----------------------------------------------------------------------
* Applicable Conditions:
*   Frequency Range = 1MHz - 20GHz
*   Temperature = 25 degC
*   DC Bias Current = 0 A
*   Small Signal Operation
*----------------------------------------------------------------------
.SUBCKT LQW18AN22NJ8Z port1 port2
C1 port1 port2 4.82e-14
L2 port1 1 2.29e-8
R2 1 port2 7.10e-2
R3 port1 port2 2.28e+4
L4 port1 2 4.43e-7
R4 2 port2 71.1
L5 port1 3 1.04e-6
R5 3 port2 1.52e+3
L6 port1 4 2.47e-6
C6 4 5 1.55e-16
R6 5 port2 281
L7 port1 6 8.43e-8
C7 6 7 1.45e-15
R7 7 port2 365
.ENDS LQW18AN22NJ8Z
*----------------------------------------------------------------------
*----------------------------------------------------------------------
* SPICE Model generated by Murata Manufacturing Co., Ltd.
* Copyright(C) Murata Manufacturing Co., Ltd.
* MURATA P/N : LQW18AN23NG8Z
* Property : L = 23[nH]
*----------------------------------------------------------------------
* Applicable Conditions:
*   Frequency Range = 1MHz - 20GHz
*   Temperature = 25 degC
*   DC Bias Current = 0 A
*   Small Signal Operation
*----------------------------------------------------------------------
.SUBCKT LQW18AN23NG8Z port1 port2
C1 port1 port2 5.16e-14
L2 port1 1 2.40e-8
R2 1 port2 7.10e-2
R3 port1 port2 2.28e+4
L4 port1 2 4.58e-7
R4 2 port2 79.6
L5 port1 3 1.21e-6
R5 3 port2 1.59e+3
L6 port1 4 2.47e-6
C6 4 5 1.41e-16
R6 5 port2 281
L7 port1 6 8.43e-8
C7 6 7 1.45e-15
R7 7 port2 365
.ENDS LQW18AN23NG8Z
*----------------------------------------------------------------------
*----------------------------------------------------------------------
* SPICE Model generated by Murata Manufacturing Co., Ltd.
* Copyright(C) Murata Manufacturing Co., Ltd.
* MURATA P/N : LQW18AN23NJ8Z
* Property : L = 23[nH]
*----------------------------------------------------------------------
* Applicable Conditions:
*   Frequency Range = 1MHz - 20GHz
*   Temperature = 25 degC
*   DC Bias Current = 0 A
*   Small Signal Operation
*----------------------------------------------------------------------
.SUBCKT LQW18AN23NJ8Z port1 port2
C1 port1 port2 5.16e-14
L2 port1 1 2.40e-8
R2 1 port2 7.10e-2
R3 port1 port2 2.28e+4
L4 port1 2 4.58e-7
R4 2 port2 79.6
L5 port1 3 1.21e-6
R5 3 port2 1.59e+3
L6 port1 4 2.47e-6
C6 4 5 1.41e-16
R6 5 port2 281
L7 port1 6 8.43e-8
C7 6 7 1.45e-15
R7 7 port2 365
.ENDS LQW18AN23NJ8Z
*----------------------------------------------------------------------
*----------------------------------------------------------------------
* SPICE Model generated by Murata Manufacturing Co., Ltd.
* Copyright(C) Murata Manufacturing Co., Ltd.
* MURATA P/N : LQW18AN24NG8Z
* Property : L = 24[nH]
*----------------------------------------------------------------------
* Applicable Conditions:
*   Frequency Range = 1MHz - 20GHz
*   Temperature = 25 degC
*   DC Bias Current = 0 A
*   Small Signal Operation
*----------------------------------------------------------------------
.SUBCKT LQW18AN24NG8Z port1 port2
C1 port1 port2 6.35e-14
L2 port1 1 2.51e-8
R2 1 port2 7.10e-2
R3 port1 port2 2.28e+4
L4 port1 2 4.37e-7
R4 2 port2 79.6
L5 port1 3 1.10e-6
R5 3 port2 1.59e+3
L6 port1 4 2.47e-6
C6 4 5 1.44e-16
R6 5 port2 281
L7 port1 6 8.43e-8
C7 6 7 1.55e-15
R7 7 port2 365
.ENDS LQW18AN24NG8Z
*----------------------------------------------------------------------
*----------------------------------------------------------------------
* SPICE Model generated by Murata Manufacturing Co., Ltd.
* Copyright(C) Murata Manufacturing Co., Ltd.
* MURATA P/N : LQW18AN24NJ8Z
* Property : L = 24[nH]
*----------------------------------------------------------------------
* Applicable Conditions:
*   Frequency Range = 1MHz - 20GHz
*   Temperature = 25 degC
*   DC Bias Current = 0 A
*   Small Signal Operation
*----------------------------------------------------------------------
.SUBCKT LQW18AN24NJ8Z port1 port2
C1 port1 port2 6.35e-14
L2 port1 1 2.51e-8
R2 1 port2 7.10e-2
R3 port1 port2 2.28e+4
L4 port1 2 4.37e-7
R4 2 port2 79.6
L5 port1 3 1.10e-6
R5 3 port2 1.59e+3
L6 port1 4 2.47e-6
C6 4 5 1.44e-16
R6 5 port2 281
L7 port1 6 8.43e-8
C7 6 7 1.55e-15
R7 7 port2 365
.ENDS LQW18AN24NJ8Z
*----------------------------------------------------------------------
*----------------------------------------------------------------------
* SPICE Model generated by Murata Manufacturing Co., Ltd.
* Copyright(C) Murata Manufacturing Co., Ltd.
* MURATA P/N : LQW18AN25NG8Z
* Property : L = 25[nH]
*----------------------------------------------------------------------
* Applicable Conditions:
*   Frequency Range = 1MHz - 20GHz
*   Temperature = 25 degC
*   DC Bias Current = 0 A
*   Small Signal Operation
*----------------------------------------------------------------------
.SUBCKT LQW18AN25NG8Z port1 port2
C1 port1 port2 4.10e-14
L2 port1 1 2.63e-8
R2 1 port2 8.10e-2
R3 port1 port2 2.28e+4
L4 port1 2 4.37e-7
R4 2 port2 79.6
L5 port1 3 1.23e-6
R5 3 port2 1.59e+3
L6 port1 4 2.47e-6
C6 4 5 2.13e-16
R6 5 port2 281
L7 port1 6 8.43e-8
C7 6 7 2.04e-15
R7 7 port2 365
.ENDS LQW18AN25NG8Z
*----------------------------------------------------------------------
*----------------------------------------------------------------------
* SPICE Model generated by Murata Manufacturing Co., Ltd.
* Copyright(C) Murata Manufacturing Co., Ltd.
* MURATA P/N : LQW18AN25NJ8Z
* Property : L = 25[nH]
*----------------------------------------------------------------------
* Applicable Conditions:
*   Frequency Range = 1MHz - 20GHz
*   Temperature = 25 degC
*   DC Bias Current = 0 A
*   Small Signal Operation
*----------------------------------------------------------------------
.SUBCKT LQW18AN25NJ8Z port1 port2
C1 port1 port2 4.10e-14
L2 port1 1 2.63e-8
R2 1 port2 8.10e-2
R3 port1 port2 2.28e+4
L4 port1 2 4.37e-7
R4 2 port2 79.6
L5 port1 3 1.23e-6
R5 3 port2 1.59e+3
L6 port1 4 2.47e-6
C6 4 5 2.13e-16
R6 5 port2 281
L7 port1 6 8.43e-8
C7 6 7 2.04e-15
R7 7 port2 365
.ENDS LQW18AN25NJ8Z
*----------------------------------------------------------------------
*----------------------------------------------------------------------
* SPICE Model generated by Murata Manufacturing Co., Ltd.
* Copyright(C) Murata Manufacturing Co., Ltd.
* MURATA P/N : LQW18AN27NG8Z
* Property : L = 27[nH]
*----------------------------------------------------------------------
* Applicable Conditions:
*   Frequency Range = 1MHz - 20GHz
*   Temperature = 25 degC
*   DC Bias Current = 0 A
*   Small Signal Operation
*----------------------------------------------------------------------
.SUBCKT LQW18AN27NG8Z port1 port2
C1 port1 port2 5.04e-14
L2 port1 1 2.75e-8
R2 1 port2 8.10e-2
R3 port1 port2 2.28e+4
L4 port1 2 4.58e-7
R4 2 port2 79.6
L5 port1 3 1.35e-6
R5 3 port2 1.59e+3
L6 port1 4 2.47e-6
C6 4 5 2.28e-16
R6 5 port2 281
L7 port1 6 8.43e-8
C7 6 7 2.24e-15
R7 7 port2 365
.ENDS LQW18AN27NG8Z
*----------------------------------------------------------------------
*----------------------------------------------------------------------
* SPICE Model generated by Murata Manufacturing Co., Ltd.
* Copyright(C) Murata Manufacturing Co., Ltd.
* MURATA P/N : LQW18AN27NJ8Z
* Property : L = 27[nH]
*----------------------------------------------------------------------
* Applicable Conditions:
*   Frequency Range = 1MHz - 20GHz
*   Temperature = 25 degC
*   DC Bias Current = 0 A
*   Small Signal Operation
*----------------------------------------------------------------------
.SUBCKT LQW18AN27NJ8Z port1 port2
C1 port1 port2 5.04e-14
L2 port1 1 2.75e-8
R2 1 port2 8.10e-2
R3 port1 port2 2.28e+4
L4 port1 2 4.58e-7
R4 2 port2 79.6
L5 port1 3 1.35e-6
R5 3 port2 1.59e+3
L6 port1 4 2.47e-6
C6 4 5 2.28e-16
R6 5 port2 281
L7 port1 6 8.43e-8
C7 6 7 2.24e-15
R7 7 port2 365
.ENDS LQW18AN27NJ8Z
*----------------------------------------------------------------------
*----------------------------------------------------------------------
* SPICE Model generated by Murata Manufacturing Co., Ltd.
* Copyright(C) Murata Manufacturing Co., Ltd.
* MURATA P/N : LQW18AN28NG8Z
* Property : L = 28[nH]
*----------------------------------------------------------------------
* Applicable Conditions:
*   Frequency Range = 1MHz - 20GHz
*   Temperature = 25 degC
*   DC Bias Current = 0 A
*   Small Signal Operation
*----------------------------------------------------------------------
.SUBCKT LQW18AN28NG8Z port1 port2
C1 port1 port2 5.16e-14
L2 port1 1 2.95e-8
R2 1 port2 8.10e-2
R3 port1 port2 2.28e+4
L4 port1 2 4.80e-7
R4 2 port2 79.6
L5 port1 3 1.26e-6
R5 3 port2 1.59e+3
L6 port1 4 2.47e-6
C6 4 5 1.85e-16
R6 5 port2 281
L7 port1 6 8.43e-8
C7 6 7 2.24e-15
R7 7 port2 365
.ENDS LQW18AN28NG8Z
*----------------------------------------------------------------------
*----------------------------------------------------------------------
* SPICE Model generated by Murata Manufacturing Co., Ltd.
* Copyright(C) Murata Manufacturing Co., Ltd.
* MURATA P/N : LQW18AN28NJ8Z
* Property : L = 28[nH]
*----------------------------------------------------------------------
* Applicable Conditions:
*   Frequency Range = 1MHz - 20GHz
*   Temperature = 25 degC
*   DC Bias Current = 0 A
*   Small Signal Operation
*----------------------------------------------------------------------
.SUBCKT LQW18AN28NJ8Z port1 port2
C1 port1 port2 5.16e-14
L2 port1 1 2.95e-8
R2 1 port2 8.10e-2
R3 port1 port2 2.28e+4
L4 port1 2 4.80e-7
R4 2 port2 79.6
L5 port1 3 1.26e-6
R5 3 port2 1.59e+3
L6 port1 4 2.47e-6
C6 4 5 1.85e-16
R6 5 port2 281
L7 port1 6 8.43e-8
C7 6 7 2.24e-15
R7 7 port2 365
.ENDS LQW18AN28NJ8Z
*----------------------------------------------------------------------
*----------------------------------------------------------------------
* SPICE Model generated by Murata Manufacturing Co., Ltd.
* Copyright(C) Murata Manufacturing Co., Ltd.
* MURATA P/N : LQW18AN2N2C8Z
* Property : L = 2.2[nH]
*----------------------------------------------------------------------
* Applicable Conditions:
*   Frequency Range = 1MHz - 20GHz
*   Temperature = 25 degC
*   DC Bias Current = 0 A
*   Small Signal Operation
*----------------------------------------------------------------------
.SUBCKT LQW18AN2N2C8Z port1 port2
C1 port1 port2 6.09e-14
L2 port1 1 1.94e-9
R2 1 port2 1.50e-2
R3 port1 port2 2.28e+4
L4 port1 2 4.10e-8
R4 2 port2 9.71
L5 port1 3 4.91e-8
R5 3 port2 180
.ENDS LQW18AN2N2C8Z
*----------------------------------------------------------------------
*----------------------------------------------------------------------
* SPICE Model generated by Murata Manufacturing Co., Ltd.
* Copyright(C) Murata Manufacturing Co., Ltd.
* MURATA P/N : LQW18AN2N4C8Z
* Property : L = 2.4[nH]
*----------------------------------------------------------------------
* Applicable Conditions:
*   Frequency Range = 1MHz - 20GHz
*   Temperature = 25 degC
*   DC Bias Current = 0 A
*   Small Signal Operation
*----------------------------------------------------------------------
.SUBCKT LQW18AN2N4C8Z port1 port2
C1 port1 port2 5.95e-14
L2 port1 1 2.03e-9
R2 1 port2 2.10e-2
R3 port1 port2 2.28e+4
L4 port1 2 6.19e-8
R4 2 port2 54.9
L5 port1 3 7.07e-8
R5 3 port2 323
.ENDS LQW18AN2N4C8Z
*----------------------------------------------------------------------
*----------------------------------------------------------------------
* SPICE Model generated by Murata Manufacturing Co., Ltd.
* Copyright(C) Murata Manufacturing Co., Ltd.
* MURATA P/N : LQW18AN30NG8Z
* Property : L = 30[nH]
*----------------------------------------------------------------------
* Applicable Conditions:
*   Frequency Range = 1MHz - 20GHz
*   Temperature = 25 degC
*   DC Bias Current = 0 A
*   Small Signal Operation
*----------------------------------------------------------------------
.SUBCKT LQW18AN30NG8Z port1 port2
C1 port1 port2 6.64e-14
L2 port1 1 3.16e-8
R2 1 port2 1.00e-1
R3 port1 port2 2.28e+4
L4 port1 2 5.02e-7
R4 2 port2 79.6
L5 port1 3 1.45e-6
R5 3 port2 1.59e+3
L6 port1 4 2.47e-6
C6 4 5 2.28e-16
R6 5 port2 281
L7 port1 6 8.43e-8
C7 6 7 2.24e-15
R7 7 port2 365
.ENDS LQW18AN30NG8Z
*----------------------------------------------------------------------
*----------------------------------------------------------------------
* SPICE Model generated by Murata Manufacturing Co., Ltd.
* Copyright(C) Murata Manufacturing Co., Ltd.
* MURATA P/N : LQW18AN30NJ8Z
* Property : L = 30[nH]
*----------------------------------------------------------------------
* Applicable Conditions:
*   Frequency Range = 1MHz - 20GHz
*   Temperature = 25 degC
*   DC Bias Current = 0 A
*   Small Signal Operation
*----------------------------------------------------------------------
.SUBCKT LQW18AN30NJ8Z port1 port2
C1 port1 port2 6.64e-14
L2 port1 1 3.16e-8
R2 1 port2 1.00e-1
R3 port1 port2 2.28e+4
L4 port1 2 5.02e-7
R4 2 port2 79.6
L5 port1 3 1.45e-6
R5 3 port2 1.59e+3
L6 port1 4 2.47e-6
C6 4 5 2.28e-16
R6 5 port2 281
L7 port1 6 8.43e-8
C7 6 7 2.24e-15
R7 7 port2 365
.ENDS LQW18AN30NJ8Z
*----------------------------------------------------------------------
*----------------------------------------------------------------------
* SPICE Model generated by Murata Manufacturing Co., Ltd.
* Copyright(C) Murata Manufacturing Co., Ltd.
* MURATA P/N : LQW18AN31NG8Z
* Property : L = 31[nH]