*----------------------------------------------------------------------
* SPICE Model generated by Murata Manufacturing Co., Ltd.
* Copyright(C) Murata Manufacturing Co., Ltd.
* MURATA P/N : LQW15AN1N3C10
* Property : L = 1.3[nH]
*----------------------------------------------------------------------
* Applicable Conditions:
*   Frequency Range = 1MHz - 20GHz
*   Temperature = 25 degC
*   DC Bias Current = 0 A
*   Small Signal Operation
*----------------------------------------------------------------------
.SUBCKT LQW15AN1N3C10 port1 port2
C1 port1 port2 1.10e-15
L2 port1 1 9.30e-10
R2 1 port2 1.20e-2
R3 port1 port2 2.12e+4
L4 port1 2 8.39e-9
R4 2 port2 4.77
L5 port1 3 5.71e-8
R5 3 port2 867
.ENDS LQW15AN1N3C10
*----------------------------------------------------------------------
*----------------------------------------------------------------------
* SPICE Model generated by Murata Manufacturing Co., Ltd.
* Copyright(C) Murata Manufacturing Co., Ltd.
* MURATA P/N : LQW15AN1N3D10
* Property : L = 1.3[nH]
*----------------------------------------------------------------------
* Applicable Conditions:
*   Frequency Range = 1MHz - 20GHz
*   Temperature = 25 degC
*   DC Bias Current = 0 A
*   Small Signal Operation
*----------------------------------------------------------------------
.SUBCKT LQW15AN1N3D10 port1 port2
C1 port1 port2 1.10e-15
L2 port1 1 9.30e-10
R2 1 port2 1.20e-2
R3 port1 port2 2.12e+4
L4 port1 2 8.39e-9
R4 2 port2 4.77
L5 port1 3 5.71e-8
R5 3 port2 867
.ENDS LQW15AN1N3D10
*----------------------------------------------------------------------
*----------------------------------------------------------------------
* SPICE Model generated by Murata Manufacturing Co., Ltd.
* Copyright(C) Murata Manufacturing Co., Ltd.
* MURATA P/N : LQW15AN1N4C10
* Property : L = 1.4[nH]
*----------------------------------------------------------------------
* Applicable Conditions:
*   Frequency Range = 1MHz - 20GHz
*   Temperature = 25 degC
*   DC Bias Current = 0 A
*   Small Signal Operation
*----------------------------------------------------------------------
.SUBCKT LQW15AN1N4C10 port1 port2
C1 port1 port2 1.78e-14
L2 port1 1 1.02e-9
R2 1 port2 1.30e-2
R3 port1 port2 2.12e+4
L4 port1 2 3.38e-8
R4 2 port2 39.9
L5 port1 3 2.73e-8
R5 3 port2 160
.ENDS LQW15AN1N4C10
*----------------------------------------------------------------------
*----------------------------------------------------------------------
* SPICE Model generated by Murata Manufacturing Co., Ltd.
* Copyright(C) Murata Manufacturing Co., Ltd.
* MURATA P/N : LQW15AN1N4D10
* Property : L = 1.4[nH]
*----------------------------------------------------------------------
* Applicable Conditions:
*   Frequency Range = 1MHz - 20GHz
*   Temperature = 25 degC
*   DC Bias Current = 0 A
*   Small Signal Operation
*----------------------------------------------------------------------
.SUBCKT LQW15AN1N4D10 port1 port2
C1 port1 port2 1.78e-14
L2 port1 1 1.02e-9
R2 1 port2 1.30e-2
R3 port1 port2 2.12e+4
L4 port1 2 3.38e-8
R4 2 port2 39.9
L5 port1 3 2.73e-8
R5 3 port2 160
.ENDS LQW15AN1N4D10
*----------------------------------------------------------------------
*----------------------------------------------------------------------
* SPICE Model generated by Murata Manufacturing Co., Ltd.
* Copyright(C) Murata Manufacturing Co., Ltd.
* MURATA P/N : LQW15AN2N2C10
* Property : L = 2.2[nH]
*----------------------------------------------------------------------
* Applicable Conditions:
*   Frequency Range = 1MHz - 20GHz
*   Temperature = 25 degC
*   DC Bias Current = 0 A
*   Small Signal Operation
*----------------------------------------------------------------------
.SUBCKT LQW15AN2N2C10 port1 port2
C1 port1 port2 8.31e-15
L2 port1 1 2.18e-9
R2 1 port2 1.90e-2
R3 port1 port2 2.12e+4
L4 port1 2 1.36e-8
R4 2 port2 3.79
L5 port1 3 6.26e-8
R5 3 port2 268
.ENDS LQW15AN2N2C10
*----------------------------------------------------------------------
*----------------------------------------------------------------------
* SPICE Model generated by Murata Manufacturing Co., Ltd.
* Copyright(C) Murata Manufacturing Co., Ltd.
* MURATA P/N : LQW15AN2N2D10
* Property : L = 2.2[nH]
*----------------------------------------------------------------------
* Applicable Conditions:
*   Frequency Range = 1MHz - 20GHz
*   Temperature = 25 degC
*   DC Bias Current = 0 A
*   Small Signal Operation
*----------------------------------------------------------------------
.SUBCKT LQW15AN2N2D10 port1 port2
C1 port1 port2 8.31e-15
L2 port1 1 2.18e-9
R2 1 port2 1.90e-2
R3 port1 port2 2.12e+4
L4 port1 2 1.36e-8
R4 2 port2 3.79
L5 port1 3 6.26e-8
R5 3 port2 268
.ENDS LQW15AN2N2D10
*----------------------------------------------------------------------
*----------------------------------------------------------------------
* SPICE Model generated by Murata Manufacturing Co., Ltd.
* Copyright(C) Murata Manufacturing Co., Ltd.
* MURATA P/N : LQW15AN2N3C10
* Property : L = 2.3[nH]
*----------------------------------------------------------------------
* Applicable Conditions:
*   Frequency Range = 1MHz - 20GHz
*   Temperature = 25 degC
*   DC Bias Current = 0 A
*   Small Signal Operation
*----------------------------------------------------------------------
.SUBCKT LQW15AN2N3C10 port1 port2
C1 port1 port2 2.14e-14
L2 port1 1 2.08e-9
R2 1 port2 1.90e-2
R3 port1 port2 2.02e+4
L4 port1 2 3.58e-8
R4 2 port2 3.79
L5 port1 3 4.75e-8
R5 3 port2 131
.ENDS LQW15AN2N3C10
*----------------------------------------------------------------------
*----------------------------------------------------------------------
* SPICE Model generated by Murata Manufacturing Co., Ltd.
* Copyright(C) Murata Manufacturing Co., Ltd.
* MURATA P/N : LQW15AN2N3D10
* Property : L = 2.3[nH]
*----------------------------------------------------------------------
* Applicable Conditions:
*   Frequency Range = 1MHz - 20GHz
*   Temperature = 25 degC
*   DC Bias Current = 0 A
*   Small Signal Operation
*----------------------------------------------------------------------
.SUBCKT LQW15AN2N3D10 port1 port2
C1 port1 port2 2.14e-14
L2 port1 1 2.08e-9
R2 1 port2 1.90e-2
R3 port1 port2 2.02e+4
L4 port1 2 3.58e-8
R4 2 port2 3.79
L5 port1 3 4.75e-8
R5 3 port2 131
.ENDS LQW15AN2N3D10
*----------------------------------------------------------------------
*----------------------------------------------------------------------
* SPICE Model generated by Murata Manufacturing Co., Ltd.
* Copyright(C) Murata Manufacturing Co., Ltd.
* MURATA P/N : LQW15AN2N4D10
* Property : L = 2.4[nH]
*----------------------------------------------------------------------
* Applicable Conditions:
*   Frequency Range = 1MHz - 20GHz
*   Temperature = 25 degC
*   DC Bias Current = 0 A
*   Small Signal Operation
*----------------------------------------------------------------------
.SUBCKT LQW15AN2N4D10 port1 port2
C1 port1 port2 1.86e-14
L2 port1 1 2.39e-9
R2 1 port2 1.90e-2
R3 port1 port2 2.12e+4
L4 port1 2 2.71e-8
R4 2 port2 9.51
L5 port1 3 1.25e-7
R5 3 port2 689
.ENDS LQW15AN2N4D10
*----------------------------------------------------------------------
*----------------------------------------------------------------------
* SPICE Model generated by Murata Manufacturing Co., Ltd.
* Copyright(C) Murata Manufacturing Co., Ltd.
* MURATA P/N : LQW15AN3N3D10
* Property : L = 3.3[nH]
*----------------------------------------------------------------------
* Applicable Conditions:
*   Frequency Range = 1MHz - 20GHz
*   Temperature = 25 degC
*   DC Bias Current = 0 A
*   Small Signal Operation
*----------------------------------------------------------------------
.SUBCKT LQW15AN3N3D10 port1 port2
C1 port1 port2 1.44e-14
L2 port1 1 3.37e-9
R2 1 port2 2.80e-2
R3 port1 port2 2.12e+4
L4 port1 2 1.94e-8
R4 2 port2 5.18
L5 port1 3 2.19e-7
R5 3 port2 1.99e+3
.ENDS LQW15AN3N3D10
*----------------------------------------------------------------------
*----------------------------------------------------------------------
* SPICE Model generated by Murata Manufacturing Co., Ltd.
* Copyright(C) Murata Manufacturing Co., Ltd.
* MURATA P/N : LQW15AN3N4C10
* Property : L = 3.4[nH]
*----------------------------------------------------------------------
* Applicable Conditions:
*   Frequency Range = 1MHz - 20GHz
*   Temperature = 25 degC
*   DC Bias Current = 0 A
*   Small Signal Operation
*----------------------------------------------------------------------
.SUBCKT LQW15AN3N4C10 port1 port2
C1 port1 port2 1.58e-14
L2 port1 1 3.53e-9
R2 1 port2 2.80e-2
R3 port1 port2 2.12e+4
L4 port1 2 2.23e-8
R4 2 port2 5.18
L5 port1 3 1.95e-7
R5 3 port2 1.35e+3
.ENDS LQW15AN3N4C10
*----------------------------------------------------------------------
*----------------------------------------------------------------------
* SPICE Model generated by Murata Manufacturing Co., Ltd.
* Copyright(C) Murata Manufacturing Co., Ltd.
* MURATA P/N : LQW15AN3N4D10
* Property : L = 3.4[nH]
*----------------------------------------------------------------------
* Applicable Conditions:
*   Frequency Range = 1MHz - 20GHz
*   Temperature = 25 degC
*   DC Bias Current = 0 A
*   Small Signal Operation
*----------------------------------------------------------------------
.SUBCKT LQW15AN3N4D10 port1 port2
C1 port1 port2 1.58e-14
L2 port1 1 3.53e-9
R2 1 port2 2.80e-2
R3 port1 port2 2.12e+4
L4 port1 2 2.23e-8
R4 2 port2 5.18
L5 port1 3 1.95e-7
R5 3 port2 1.35e+3
.ENDS LQW15AN3N4D10
*----------------------------------------------------------------------
*----------------------------------------------------------------------
* SPICE Model generated by Murata Manufacturing Co., Ltd.
* Copyright(C) Murata Manufacturing Co., Ltd.
* MURATA P/N : LQW15AN3N5C10
* Property : L = 3.5[nH]
*----------------------------------------------------------------------
* Applicable Conditions:
*   Frequency Range = 1MHz - 20GHz
*   Temperature = 25 degC
*   DC Bias Current = 0 A
*   Small Signal Operation
*----------------------------------------------------------------------
.SUBCKT LQW15AN3N5C10 port1 port2
C1 port1 port2 2.18e-14
L2 port1 1 3.22e-9
R2 1 port2 2.80e-2
R3 port1 port2 1.76e+4
L4 port1 2 9.17e-8
R4 2 port2 90.6
L5 port1 3 1.90e-7
R5 3 port2 910
.ENDS LQW15AN3N5C10
*----------------------------------------------------------------------
*----------------------------------------------------------------------
* SPICE Model generated by Murata Manufacturing Co., Ltd.
* Copyright(C) Murata Manufacturing Co., Ltd.
* MURATA P/N : LQW15AN3N5D10
* Property : L = 3.5[nH]
*----------------------------------------------------------------------
* Applicable Conditions:
*   Frequency Range = 1MHz - 20GHz
*   Temperature = 25 degC
*   DC Bias Current = 0 A
*   Small Signal Operation
*----------------------------------------------------------------------
.SUBCKT LQW15AN3N5D10 port1 port2
C1 port1 port2 2.18e-14
L2 port1 1 3.22e-9
R2 1 port2 2.80e-2
R3 port1 port2 1.76e+4
L4 port1 2 9.17e-8
R4 2 port2 90.6
L5 port1 3 1.90e-7
R5 3 port2 910
.ENDS LQW15AN3N5D10
*----------------------------------------------------------------------
*----------------------------------------------------------------------
* SPICE Model generated by Murata Manufacturing Co., Ltd.
* Copyright(C) Murata Manufacturing Co., Ltd.
* MURATA P/N : LQW15AN3N6C10
* Property : L = 3.6[nH]
*----------------------------------------------------------------------
* Applicable Conditions:
*   Frequency Range = 1MHz - 20GHz
*   Temperature = 25 degC
*   DC Bias Current = 0 A
*   Small Signal Operation
*----------------------------------------------------------------------
.SUBCKT LQW15AN3N6C10 port1 port2
C1 port1 port2 1.94e-14
L2 port1 1 3.70e-9
R2 1 port2 2.80e-2
R3 port1 port2 2.12e+4
L4 port1 2 3.53e-8
R4 2 port2 10.3
L5 port1 3 2.24e-7
R5 3 port2 1.20e+3
.ENDS LQW15AN3N6C10
*----------------------------------------------------------------------
*----------------------------------------------------------------------
* SPICE Model generated by Murata Manufacturing Co., Ltd.
* Copyright(C) Murata Manufacturing Co., Ltd.
* MURATA P/N : LQW15AN3N6D10
* Property : L = 3.6[nH]
*----------------------------------------------------------------------
* Applicable Conditions:
*   Frequency Range = 1MHz - 20GHz
*   Temperature = 25 degC
*   DC Bias Current = 0 A
*   Small Signal Operation
*----------------------------------------------------------------------
.SUBCKT LQW15AN3N6D10 port1 port2
C1 port1 port2 1.94e-14
L2 port1 1 3.70e-9
R2 1 port2 2.80e-2
R3 port1 port2 2.12e+4
L4 port1 2 3.53e-8
R4 2 port2 10.3
L5 port1 3 2.24e-7
R5 3 port2 1.20e+3
.ENDS LQW15AN3N6D10
*----------------------------------------------------------------------
*----------------------------------------------------------------------
* SPICE Model generated by Murata Manufacturing Co., Ltd.
* Copyright(C) Murata Manufacturing Co., Ltd.
* MURATA P/N : LQW15AN3N8C10
* Property : L = 3.8[nH]
*----------------------------------------------------------------------
* Applicable Conditions:
*   Frequency Range = 1MHz - 20GHz
*   Temperature = 25 degC
*   DC Bias Current = 0 A
*   Small Signal Operation
*----------------------------------------------------------------------
.SUBCKT LQW15AN3N8C10 port1 port2
C1 port1 port2 3.53e-14
L2 port1 1 3.61e-9
R2 1 port2 2.80e-2
R3 port1 port2 7.04e+3
L4 port1 2 1.00e-7
R4 2 port2 47.0
L5 port1 3 1.76e-7
R5 3 port2 688
.ENDS LQW15AN3N8C10
*----------------------------------------------------------------------
*----------------------------------------------------------------------
* SPICE Model generated by Murata Manufacturing Co., Ltd.
* Copyright(C) Murata Manufacturing Co., Ltd.
* MURATA P/N : LQW15AN3N8D10
* Property : L = 3.8[nH]
*----------------------------------------------------------------------
* Applicable Conditions:
*   Frequency Range = 1MHz - 20GHz
*   Temperature = 25 degC
*   DC Bias Current = 0 A
*   Small Signal Operation
*----------------------------------------------------------------------
.SUBCKT LQW15AN3N8D10 port1 port2
C1 port1 port2 3.53e-14
L2 port1 1 3.61e-9
R2 1 port2 2.80e-2
R3 port1 port2 7.04e+3
L4 port1 2 1.00e-7
R4 2 port2 47.0
L5 port1 3 1.76e-7
R5 3 port2 688
.ENDS LQW15AN3N8D10
*----------------------------------------------------------------------
*----------------------------------------------------------------------
* SPICE Model generated by Murata Manufacturing Co., Ltd.
* Copyright(C) Murata Manufacturing Co., Ltd.
* MURATA P/N : LQW15AN3N9D10
* Property : L = 3.9[nH]
*----------------------------------------------------------------------
* Applicable Conditions:
*   Frequency Range = 1MHz - 20GHz
*   Temperature = 25 degC
*   DC Bias Current = 0 A
*   Small Signal Operation
*----------------------------------------------------------------------
.SUBCKT LQW15AN3N9D10 port1 port2
C1 port1 port2 3.70e-14
L2 port1 1 3.87e-9
R2 1 port2 2.80e-2
R3 port1 port2 1.09e+4
L4 port1 2 4.16e-8
R4 2 port2 12.4
L5 port1 3 1.56e-7
R5 3 port2 265
.ENDS LQW15AN3N9D10
*----------------------------------------------------------------------
*----------------------------------------------------------------------
* SPICE Model generated by Murata Manufacturing Co., Ltd.
* Copyright(C) Murata Manufacturing Co., Ltd.
* MURATA P/N : LQW15AN4N0C10
* Property : L = 4[nH]
*----------------------------------------------------------------------
* Applicable Conditions:
*   Frequency Range = 1MHz - 20GHz
*   Temperature = 25 degC
*   DC Bias Current = 0 A
*   Small Signal Operation
*----------------------------------------------------------------------
.SUBCKT LQW15AN4N0C10 port1 port2
C1 port1 port2 3.15e-14
L2 port1 1 3.61e-9
R2 1 port2 3.60e-2
R3 port1 port2 7.04e+3
L4 port1 2 1.10e-7
R4 2 port2 25.0
L5 port1 3 1.14e-7
R5 3 port2 316
.ENDS LQW15AN4N0C10
*----------------------------------------------------------------------
*----------------------------------------------------------------------
* SPICE Model generated by Murata Manufacturing Co., Ltd.
* Copyright(C) Murata Manufacturing Co., Ltd.
* MURATA P/N : LQW15AN4N0D10
* Property : L = 4[nH]
*----------------------------------------------------------------------
* Applicable Conditions:
*   Frequency Range = 1MHz - 20GHz
*   Temperature = 25 degC
*   DC Bias Current = 0 A
*   Small Signal Operation
*----------------------------------------------------------------------
.SUBCKT LQW15AN4N0D10 port1 port2
C1 port1 port2 3.15e-14
L2 port1 1 3.61e-9
R2 1 port2 3.60e-2
R3 port1 port2 7.04e+3
L4 port1 2 1.10e-7
R4 2 port2 25.0
L5 port1 3 1.14e-7
R5 3 port2 316
.ENDS LQW15AN4N0D10
*----------------------------------------------------------------------
*----------------------------------------------------------------------
* SPICE Model generated by Murata Manufacturing Co., Ltd.
* Copyright(C) Murata Manufacturing Co., Ltd.
* MURATA P/N : LQW15AN4N2C10
* Property : L = 4.2[nH]
*----------------------------------------------------------------------
* Applicable Conditions:
*   Frequency Range = 1MHz - 20GHz
*   Temperature = 25 degC
*   DC Bias Current = 0 A
*   Small Signal Operation
*----------------------------------------------------------------------
.SUBCKT LQW15AN4N2C10 port1 port2
C1 port1 port2 4.99e-14
L2 port1 1 3.96e-9
R2 1 port2 3.60e-2
R3 port1 port2 9.72e+3
L4 port1 2 1.10e-7
R4 2 port2 25.0
L5 port1 3 1.19e-7
R5 3 port2 331
.ENDS LQW15AN4N2C10
*----------------------------------------------------------------------
*----------------------------------------------------------------------
* SPICE Model generated by Murata Manufacturing Co., Ltd.
* Copyright(C) Murata Manufacturing Co., Ltd.
* MURATA P/N : LQW15AN4N2D10
* Property : L = 4.2[nH]
*----------------------------------------------------------------------
* Applicable Conditions:
*   Frequency Range = 1MHz - 20GHz
*   Temperature = 25 degC
*   DC Bias Current = 0 A
*   Small Signal Operation
*----------------------------------------------------------------------
.SUBCKT LQW15AN4N2D10 port1 port2
C1 port1 port2 4.99e-14
L2 port1 1 3.96e-9
R2 1 port2 3.60e-2
R3 port1 port2 9.72e+3
L4 port1 2 1.10e-7
R4 2 port2 25.0
L5 port1 3 1.19e-7
R5 3 port2 331
.ENDS LQW15AN4N2D10
*----------------------------------------------------------------------
*----------------------------------------------------------------------
* SPICE Model generated by Murata Manufacturing Co., Ltd.
* Copyright(C) Murata Manufacturing Co., Ltd.
* MURATA P/N : LQW15AN4N7D10
* Property : L = 4.7[nH]
*----------------------------------------------------------------------
* Applicable Conditions:
*   Frequency Range = 1MHz - 20GHz
*   Temperature = 25 degC
*   DC Bias Current = 0 A
*   Small Signal Operation
*----------------------------------------------------------------------
.SUBCKT LQW15AN4N7D10 port1 port2
C1 port1 port2 1.90e-14
L2 port1 1 4.65e-9
R2 1 port2 3.60e-2
R3 port1 port2 1.61e+4
L4 port1 2 5.12e-8
R4 2 port2 12.4
L5 port1 3 1.16e-7
R5 3 port2 210
.ENDS LQW15AN4N7D10
*----------------------------------------------------------------------
*----------------------------------------------------------------------
* SPICE Model generated by Murata Manufacturing Co., Ltd.
* Copyright(C) Murata Manufacturing Co., Ltd.
* MURATA P/N : LQW15AN5N1C10
* Property : L = 5.1[nH]
*----------------------------------------------------------------------
* Applicable Conditions:
*   Frequency Range = 1MHz - 20GHz
*   Temperature = 25 degC
*   DC Bias Current = 0 A
*   Small Signal Operation
*----------------------------------------------------------------------
.SUBCKT LQW15AN5N1C10 port1 port2
C1 port1 port2 2.81e-14
L2 port1 1 5.10e-9
R2 1 port2 3.60e-2
R3 port1 port2 1.61e+4
L4 port1 2 6.30e-8
R4 2 port2 12.4
L5 port1 3 1.46e-7
R5 3 port2 271
.ENDS LQW15AN5N1C10
*----------------------------------------------------------------------
*----------------------------------------------------------------------
* SPICE Model generated by Murata Manufacturing Co., Ltd.
* Copyright(C) Murata Manufacturing Co., Ltd.
* MURATA P/N : LQW15AN5N1D10
* Property : L = 5.1[nH]
*----------------------------------------------------------------------
* Applicable Conditions:
*   Frequency Range = 1MHz - 20GHz
*   Temperature = 25 degC
*   DC Bias Current = 0 A
*   Small Signal Operation
*----------------------------------------------------------------------
.SUBCKT LQW15AN5N1D10 port1 port2
C1 port1 port2 2.81e-14
L2 port1 1 5.10e-9
R2 1 port2 3.60e-2
R3 port1 port2 1.61e+4
L4 port1 2 6.30e-8
R4 2 port2 12.4
L5 port1 3 1.46e-7
R5 3 port2 271
.ENDS LQW15AN5N1D10
*----------------------------------------------------------------------
*----------------------------------------------------------------------
* SPICE Model generated by Murata Manufacturing Co., Ltd.
* Copyright(C) Murata Manufacturing Co., Ltd.
* MURATA P/N : LQW15AN5N2C10
* Property : L = 5.2[nH]
*----------------------------------------------------------------------
* Applicable Conditions:
*   Frequency Range = 1MHz - 20GHz
*   Temperature = 25 degC
*   DC Bias Current = 0 A
*   Small Signal Operation
*----------------------------------------------------------------------
.SUBCKT LQW15AN5N2C10 port1 port2
C1 port1 port2 2.68e-14
L2 port1 1 4.98e-9
R2 1 port2 3.60e-2
R3 port1 port2 1.50e+4
L4 port1 2 1.40e-7
R4 2 port2 71.7
L5 port1 3 2.24e-7
R5 3 port2 845
.ENDS LQW15AN5N2C10
*----------------------------------------------------------------------
*----------------------------------------------------------------------
* SPICE Model generated by Murata Manufacturing Co., Ltd.
* Copyright(C) Murata Manufacturing Co., Ltd.
* MURATA P/N : LQW15AN5N2D10
* Property : L = 5.2[nH]
*----------------------------------------------------------------------
* Applicable Conditions:
*   Frequency Range = 1MHz - 20GHz
*   Temperature = 25 degC
*   DC Bias Current = 0 A
*   Small Signal Operation
*----------------------------------------------------------------------
.SUBCKT LQW15AN5N2D10 port1 port2
C1 port1 port2 2.68e-14
L2 port1 1 4.98e-9
R2 1 port2 3.60e-2
R3 port1 port2 1.50e+4
L4 port1 2 1.40e-7
R4 2 port2 71.7
L5 port1 3 2.24e-7
R5 3 port2 845
.ENDS LQW15AN5N2D10
*----------------------------------------------------------------------
*----------------------------------------------------------------------
* SPICE Model generated by Murata Manufacturing Co., Ltd.
* Copyright(C) Murata Manufacturing Co., Ltd.
* MURATA P/N : LQW15AN5N3C10
* Property : L = 5.3[nH]
*----------------------------------------------------------------------
* Applicable Conditions:
*   Frequency Range = 1MHz - 20GHz
*   Temperature = 25 degC
*   DC Bias Current = 0 A
*   Small Signal Operation
*----------------------------------------------------------------------
.SUBCKT LQW15AN5N3C10 port1 port2
C1 port1 port2 3.01e-14
L2 port1 1 4.98e-9
R2 1 port2 3.60e-2
R3 port1 port2 1.50e+4
L4 port1 2 1.54e-7
R4 2 port2 71.7
L5 port1 3 2.24e-7
R5 3 port2 703
.ENDS LQW15AN5N3C10
*----------------------------------------------------------------------
*----------------------------------------------------------------------
* SPICE Model generated by Murata Manufacturing Co., Ltd.
* Copyright(C) Murata Manufacturing Co., Ltd.
* MURATA P/N : LQW15AN5N3D10
* Property : L = 5.3[nH]
*----------------------------------------------------------------------
* Applicable Conditions:
*   Frequency Range = 1MHz - 20GHz
*   Temperature = 25 degC
*   DC Bias Current = 0 A
*   Small Signal Operation
*----------------------------------------------------------------------
.SUBCKT LQW15AN5N3D10 port1 port2
C1 port1 port2 3.01e-14
L2 port1 1 4.98e-9
R2 1 port2 3.60e-2
R3 port1 port2 1.50e+4
L4 port1 2 1.54e-7
R4 2 port2 71.7
L5 port1 3 2.24e-7
R5 3 port2 703
.ENDS LQW15AN5N3D10
*----------------------------------------------------------------------
*----------------------------------------------------------------------
* SPICE Model generated by Murata Manufacturing Co., Ltd.
* Copyright(C) Murata Manufacturing Co., Ltd.
* MURATA P/N : LQW15AN5N4C10
* Property : L = 5.4[nH]
*----------------------------------------------------------------------
* Applicable Conditions:
*   Frequency Range = 1MHz - 20GHz
*   Temperature = 25 degC
*   DC Bias Current = 0 A
*   Small Signal Operation
*----------------------------------------------------------------------
.SUBCKT LQW15AN5N4C10 port1 port2
C1 port1 port2 3.08e-14
L2 port1 1 5.21e-9
R2 1 port2 3.60e-2
R3 port1 port2 1.50e+4
L4 port1 2 1.81e-7
R4 2 port2 71.7
L5 port1 3 1.66e-7
R5 3 port2 414
.ENDS LQW15AN5N4C10
*----------------------------------------------------------------------
*----------------------------------------------------------------------
* SPICE Model generated by Murata Manufacturing Co., Ltd.
* Copyright(C) Murata Manufacturing Co., Ltd.
* MURATA P/N : LQW15AN5N4D10
* Property : L = 5.4[nH]
*----------------------------------------------------------------------
* Applicable Conditions:
*   Frequency Range = 1MHz - 20GHz
*   Temperature = 25 degC
*   DC Bias Current = 0 A
*   Small Signal Operation
*----------------------------------------------------------------------
.SUBCKT LQW15AN5N4D10 port1 port2
C1 port1 port2 3.08e-14
L2 port1 1 5.21e-9
R2 1 port2 3.60e-2
R3 port1 port2 1.50e+4
L4 port1 2 1.81e-7
R4 2 port2 71.7
L5 port1 3 1.66e-7
R5 3 port2 414
.ENDS LQW15AN5N4D10
*----------------------------------------------------------------------
*----------------------------------------------------------------------
* SPICE Model generated by Murata Manufacturing Co., Ltd.
* Copyright(C) Murata Manufacturing Co., Ltd.
* MURATA P/N : LQW15AN5N5C10
* Property : L = 5.5[nH]
*----------------------------------------------------------------------
* Applicable Conditions:
*   Frequency Range = 1MHz - 20GHz
*   Temperature = 25 degC
*   DC Bias Current = 0 A
*   Small Signal Operation
*----------------------------------------------------------------------
.SUBCKT LQW15AN5N5C10 port1 port2
C1 port1 port2 4.56e-14
L2 port1 1 5.33e-9
R2 1 port2 3.60e-2
R3 port1 port2 1.50e+4
L4 port1 2 2.23e-7
R4 2 port2 71.7
L5 port1 3 1.66e-7
R5 3 port2 414
.ENDS LQW15AN5N5C10
*----------------------------------------------------------------------
*----------------------------------------------------------------------
* SPICE Model generated by Murata Manufacturing Co., Ltd.
* Copyright(C) Murata Manufacturing Co., Ltd.
* MURATA P/N : LQW15AN5N5D10
* Property : L = 5.5[nH]
*----------------------------------------------------------------------
* Applicable Conditions:
*   Frequency Range = 1MHz - 20GHz
*   Temperature = 25 degC
*   DC Bias Current = 0 A
*   Small Signal Operation
*----------------------------------------------------------------------
.SUBCKT LQW15AN5N5D10 port1 port2
C1 port1 port2 4.56e-14
L2 port1 1 5.33e-9
R2 1 port2 3.60e-2
R3 port1 port2 1.50e+4
L4 port1 2 2.23e-7
R4 2 port2 71.7
L5 port1 3 1.66e-7
R5 3 port2 414
.ENDS LQW15AN5N5D10
*----------------------------------------------------------------------
*----------------------------------------------------------------------
* SPICE Model generated by Murata Manufacturing Co., Ltd.
* Copyright(C) Murata Manufacturing Co., Ltd.
* MURATA P/N : LQW15AN5N6C10
* Property : L = 5.6[nH]
*----------------------------------------------------------------------
* Applicable Conditions:
*   Frequency Range = 1MHz - 20GHz
*   Temperature = 25 degC
*   DC Bias Current = 0 A
*   Small Signal Operation
*----------------------------------------------------------------------
.SUBCKT LQW15AN5N6C10 port1 port2
C1 port1 port2 3.38e-14
L2 port1 1 5.72e-9
R2 1 port2 3.68e-2
R3 port1 port2 1.61e+4
L4 port1 2 6.75e-8
R4 2 port2 12.4
L5 port1 3 1.46e-7
R5 3 port2 271
.ENDS LQW15AN5N6C10
*----------------------------------------------------------------------
*----------------------------------------------------------------------
* SPICE Model generated by Murata Manufacturing Co., Ltd.
* Copyright(C) Murata Manufacturing Co., Ltd.
* MURATA P/N : LQW15AN5N6D10
* Property : L = 5.6[nH]
*----------------------------------------------------------------------
* Applicable Conditions:
*   Frequency Range = 1MHz - 20GHz
*   Temperature = 25 degC
*   DC Bias Current = 0 A
*   Small Signal Operation
*----------------------------------------------------------------------
.SUBCKT LQW15AN5N6D10 port1 port2
C1 port1 port2 3.38e-14
L2 port1 1 5.72e-9
R2 1 port2 3.68e-2
R3 port1 port2 1.61e+4
L4 port1 2 6.75e-8
R4 2 port2 12.4
L5 port1 3 1.46e-7
R5 3 port2 271
.ENDS LQW15AN5N6D10
*----------------------------------------------------------------------
*----------------------------------------------------------------------
* SPICE Model generated by Murata Manufacturing Co., Ltd.
* Copyright(C) Murata Manufacturing Co., Ltd.
* MURATA P/N : LQW15AN5N7C10
* Property : L = 5.7[nH]
*----------------------------------------------------------------------
* Applicable Conditions:
*   Frequency Range = 1MHz - 20GHz
*   Temperature = 25 degC
*   DC Bias Current = 0 A
*   Small Signal Operation
*----------------------------------------------------------------------
.SUBCKT LQW15AN5N7C10 port1 port2
C1 port1 port2 4.35e-14
L2 port1 1 5.45e-9
R2 1 port2 3.60e-2
R3 port1 port2 1.50e+4
L4 port1 2 1.69e-7
R4 2 port2 71.7
L5 port1 3 1.66e-7
R5 3 port2 405
.ENDS LQW15AN5N7C10
*----------------------------------------------------------------------
*----------------------------------------------------------------------
* SPICE Model generated by Murata Manufacturing Co., Ltd.
* Copyright(C) Murata Manufacturing Co., Ltd.
* MURATA P/N : LQW15AN5N7D10
* Property : L = 5.7[nH]
*----------------------------------------------------------------------
* Applicable Conditions:
*   Frequency Range = 1MHz - 20GHz
*   Temperature = 25 degC
*   DC Bias Current = 0 A
*   Small Signal Operation
*----------------------------------------------------------------------
.SUBCKT LQW15AN5N7D10 port1 port2
C1 port1 port2 4.35e-14
L2 port1 1 5.45e-9
R2 1 port2 3.60e-2
R3 port1 port2 1.50e+4