*----------------------------------------------------------------------
* SPICE Model generated by Murata Manufacturing Co., Ltd.
* Copyright(C) Murata Manufacturing Co., Ltd.
* MURATA P/N : LQW15AN10NG0Z
* Property : L = 10[nH]
*----------------------------------------------------------------------
* Applicable Conditions:
*   Frequency Range = 1MHz - 20GHz
*   Temperature = 25 degC
*   DC Bias Current = 0 A
*   Small Signal Operation
*----------------------------------------------------------------------
.SUBCKT LQW15AN10NG0Z port1 port2
C1 port1 port2 2.91e-14
L2 port1 1 1.20e-8
R2 1 port2 1.20e-1
R3 port1 port2 1.87e+4
L4 port1 2 7.98e-8
R4 2 port2 3.16
L5 port1 3 2.51e-7
R5 3 port2 122
L6 port1 4 4.84e-7
R6 4 port2 2.44e+3
.ENDS LQW15AN10NG0Z
*----------------------------------------------------------------------
*----------------------------------------------------------------------
* SPICE Model generated by Murata Manufacturing Co., Ltd.
* Copyright(C) Murata Manufacturing Co., Ltd.
* MURATA P/N : LQW15AN10NH0Z
* Property : L = 10[nH]
*----------------------------------------------------------------------
* Applicable Conditions:
*   Frequency Range = 1MHz - 20GHz
*   Temperature = 25 degC
*   DC Bias Current = 0 A
*   Small Signal Operation
*----------------------------------------------------------------------
.SUBCKT LQW15AN10NH0Z port1 port2
C1 port1 port2 2.91e-14
L2 port1 1 1.20e-8
R2 1 port2 1.20e-1
R3 port1 port2 1.87e+4
L4 port1 2 7.98e-8
R4 2 port2 3.16
L5 port1 3 2.51e-7
R5 3 port2 122
L6 port1 4 4.84e-7
R6 4 port2 2.44e+3
.ENDS LQW15AN10NH0Z
*----------------------------------------------------------------------
*----------------------------------------------------------------------
* SPICE Model generated by Murata Manufacturing Co., Ltd.
* Copyright(C) Murata Manufacturing Co., Ltd.
* MURATA P/N : LQW15AN10NJ0Z
* Property : L = 10[nH]
*----------------------------------------------------------------------
* Applicable Conditions:
*   Frequency Range = 1MHz - 20GHz
*   Temperature = 25 degC
*   DC Bias Current = 0 A
*   Small Signal Operation
*----------------------------------------------------------------------
.SUBCKT LQW15AN10NJ0Z port1 port2
C1 port1 port2 2.91e-14
L2 port1 1 1.20e-8
R2 1 port2 1.20e-1
R3 port1 port2 1.87e+4
L4 port1 2 7.98e-8
R4 2 port2 3.16
L5 port1 3 2.51e-7
R5 3 port2 122
L6 port1 4 4.84e-7
R6 4 port2 2.44e+3
.ENDS LQW15AN10NJ0Z
*----------------------------------------------------------------------
*----------------------------------------------------------------------
* SPICE Model generated by Murata Manufacturing Co., Ltd.
* Copyright(C) Murata Manufacturing Co., Ltd.
* MURATA P/N : LQW15AN11NG0Z
* Property : L = 11[nH]
*----------------------------------------------------------------------
* Applicable Conditions:
*   Frequency Range = 1MHz - 20GHz
*   Temperature = 25 degC
*   DC Bias Current = 0 A
*   Small Signal Operation
*----------------------------------------------------------------------
.SUBCKT LQW15AN11NG0Z port1 port2
C1 port1 port2 1.98e-14
L2 port1 1 1.26e-8
R2 1 port2 1.00e-1
R3 port1 port2 2.05e+4
L4 port1 2 7.72e-8
R4 2 port2 4.32
L5 port1 3 2.50e-7
R5 3 port2 165
L6 port1 4 6.07e-7
R6 4 port2 3.74e+3
L7 port1 5 6.27e-8
C7 5 6 2.13e-15
R7 6 port2 105
.ENDS LQW15AN11NG0Z
*----------------------------------------------------------------------
*----------------------------------------------------------------------
* SPICE Model generated by Murata Manufacturing Co., Ltd.
* Copyright(C) Murata Manufacturing Co., Ltd.
* MURATA P/N : LQW15AN11NH0Z
* Property : L = 11[nH]
*----------------------------------------------------------------------
* Applicable Conditions:
*   Frequency Range = 1MHz - 20GHz
*   Temperature = 25 degC
*   DC Bias Current = 0 A
*   Small Signal Operation
*----------------------------------------------------------------------
.SUBCKT LQW15AN11NH0Z port1 port2
C1 port1 port2 1.98e-14
L2 port1 1 1.26e-8
R2 1 port2 1.00e-1
R3 port1 port2 2.05e+4
L4 port1 2 7.72e-8
R4 2 port2 4.32
L5 port1 3 2.50e-7
R5 3 port2 165
L6 port1 4 6.07e-7
R6 4 port2 3.74e+3
L7 port1 5 6.27e-8
C7 5 6 2.13e-15
R7 6 port2 105
.ENDS LQW15AN11NH0Z
*----------------------------------------------------------------------
*----------------------------------------------------------------------
* SPICE Model generated by Murata Manufacturing Co., Ltd.
* Copyright(C) Murata Manufacturing Co., Ltd.
* MURATA P/N : LQW15AN11NJ0Z
* Property : L = 11[nH]
*----------------------------------------------------------------------
* Applicable Conditions:
*   Frequency Range = 1MHz - 20GHz
*   Temperature = 25 degC
*   DC Bias Current = 0 A
*   Small Signal Operation
*----------------------------------------------------------------------
.SUBCKT LQW15AN11NJ0Z port1 port2
C1 port1 port2 1.98e-14
L2 port1 1 1.26e-8
R2 1 port2 1.00e-1
R3 port1 port2 2.05e+4
L4 port1 2 7.72e-8
R4 2 port2 4.32
L5 port1 3 2.50e-7
R5 3 port2 165
L6 port1 4 6.07e-7
R6 4 port2 3.74e+3
L7 port1 5 6.27e-8
C7 5 6 2.13e-15
R7 6 port2 105
.ENDS LQW15AN11NJ0Z
*----------------------------------------------------------------------
*----------------------------------------------------------------------
* SPICE Model generated by Murata Manufacturing Co., Ltd.
* Copyright(C) Murata Manufacturing Co., Ltd.
* MURATA P/N : LQW15AN12NG0Z
* Property : L = 12[nH]
*----------------------------------------------------------------------
* Applicable Conditions:
*   Frequency Range = 1MHz - 20GHz
*   Temperature = 25 degC
*   DC Bias Current = 0 A
*   Small Signal Operation
*----------------------------------------------------------------------
.SUBCKT LQW15AN12NG0Z port1 port2
C1 port1 port2 2.66e-14
L2 port1 1 1.40e-8
R2 1 port2 1.00e-1
R3 port1 port2 3.20e+4
L4 port1 2 8.08e-8
R4 2 port2 4.85
L5 port1 3 2.99e-7
R5 3 port2 225
L6 port1 4 7.11e-7
R6 4 port2 5.61e+3
L7 port1 5 9.29e-8
C7 5 6 1.38e-15
R7 6 port2 1.96e+3
.ENDS LQW15AN12NG0Z
*----------------------------------------------------------------------
*----------------------------------------------------------------------
* SPICE Model generated by Murata Manufacturing Co., Ltd.
* Copyright(C) Murata Manufacturing Co., Ltd.
* MURATA P/N : LQW15AN12NH0Z
* Property : L = 12[nH]
*----------------------------------------------------------------------
* Applicable Conditions:
*   Frequency Range = 1MHz - 20GHz
*   Temperature = 25 degC
*   DC Bias Current = 0 A
*   Small Signal Operation
*----------------------------------------------------------------------
.SUBCKT LQW15AN12NH0Z port1 port2
C1 port1 port2 2.66e-14
L2 port1 1 1.40e-8
R2 1 port2 1.00e-1
R3 port1 port2 3.20e+4
L4 port1 2 8.08e-8
R4 2 port2 4.85
L5 port1 3 2.99e-7
R5 3 port2 225
L6 port1 4 7.11e-7
R6 4 port2 5.61e+3
L7 port1 5 9.29e-8
C7 5 6 1.38e-15
R7 6 port2 1.96e+3
.ENDS LQW15AN12NH0Z
*----------------------------------------------------------------------
*----------------------------------------------------------------------
* SPICE Model generated by Murata Manufacturing Co., Ltd.
* Copyright(C) Murata Manufacturing Co., Ltd.
* MURATA P/N : LQW15AN12NJ0Z
* Property : L = 12[nH]
*----------------------------------------------------------------------
* Applicable Conditions:
*   Frequency Range = 1MHz - 20GHz
*   Temperature = 25 degC
*   DC Bias Current = 0 A
*   Small Signal Operation
*----------------------------------------------------------------------
.SUBCKT LQW15AN12NJ0Z port1 port2
C1 port1 port2 2.66e-14
L2 port1 1 1.40e-8
R2 1 port2 1.00e-1
R3 port1 port2 3.20e+4
L4 port1 2 8.08e-8
R4 2 port2 4.85
L5 port1 3 2.99e-7
R5 3 port2 225
L6 port1 4 7.11e-7
R6 4 port2 5.61e+3
L7 port1 5 9.29e-8
C7 5 6 1.38e-15
R7 6 port2 1.96e+3
.ENDS LQW15AN12NJ0Z
*----------------------------------------------------------------------
*----------------------------------------------------------------------
* SPICE Model generated by Murata Manufacturing Co., Ltd.
* Copyright(C) Murata Manufacturing Co., Ltd.
* MURATA P/N : LQW15AN13NG0Z
* Property : L = 13[nH]
*----------------------------------------------------------------------
* Applicable Conditions:
*   Frequency Range = 1MHz - 20GHz
*   Temperature = 25 degC
*   DC Bias Current = 0 A
*   Small Signal Operation
*----------------------------------------------------------------------
.SUBCKT LQW15AN13NG0Z port1 port2
C1 port1 port2 2.30e-14
L2 port1 1 1.50e-8
R2 1 port2 1.50e-1
R3 port1 port2 3.75e+4
L4 port1 2 1.06e-7
R4 2 port2 4.21
L5 port1 3 2.76e-7
R5 3 port2 183
L6 port1 4 7.22e-7
R6 4 port2 5.84e+3
L7 port1 5 5.10e-8
C7 5 6 2.84e-15
R7 6 port2 1.10e+3
.ENDS LQW15AN13NG0Z
*----------------------------------------------------------------------
*----------------------------------------------------------------------
* SPICE Model generated by Murata Manufacturing Co., Ltd.
* Copyright(C) Murata Manufacturing Co., Ltd.
* MURATA P/N : LQW15AN13NH0Z
* Property : L = 13[nH]
*----------------------------------------------------------------------
* Applicable Conditions:
*   Frequency Range = 1MHz - 20GHz
*   Temperature = 25 degC
*   DC Bias Current = 0 A
*   Small Signal Operation
*----------------------------------------------------------------------
.SUBCKT LQW15AN13NH0Z port1 port2
C1 port1 port2 2.30e-14
L2 port1 1 1.50e-8
R2 1 port2 1.50e-1
R3 port1 port2 3.75e+4
L4 port1 2 1.06e-7
R4 2 port2 4.21
L5 port1 3 2.76e-7
R5 3 port2 183
L6 port1 4 7.22e-7
R6 4 port2 5.84e+3
L7 port1 5 5.10e-8
C7 5 6 2.84e-15
R7 6 port2 1.10e+3
.ENDS LQW15AN13NH0Z
*----------------------------------------------------------------------
*----------------------------------------------------------------------
* SPICE Model generated by Murata Manufacturing Co., Ltd.
* Copyright(C) Murata Manufacturing Co., Ltd.
* MURATA P/N : LQW15AN13NJ0Z
* Property : L = 13[nH]
*----------------------------------------------------------------------
* Applicable Conditions:
*   Frequency Range = 1MHz - 20GHz
*   Temperature = 25 degC
*   DC Bias Current = 0 A
*   Small Signal Operation
*----------------------------------------------------------------------
.SUBCKT LQW15AN13NJ0Z port1 port2
C1 port1 port2 2.30e-14
L2 port1 1 1.50e-8
R2 1 port2 1.50e-1
R3 port1 port2 3.75e+4
L4 port1 2 1.06e-7
R4 2 port2 4.21
L5 port1 3 2.76e-7
R5 3 port2 183
L6 port1 4 7.22e-7
R6 4 port2 5.84e+3
L7 port1 5 5.10e-8
C7 5 6 2.84e-15
R7 6 port2 1.10e+3
.ENDS LQW15AN13NJ0Z
*----------------------------------------------------------------------
*----------------------------------------------------------------------
* SPICE Model generated by Murata Manufacturing Co., Ltd.
* Copyright(C) Murata Manufacturing Co., Ltd.
* MURATA P/N : LQW15AN15NG0Z
* Property : L = 15[nH]
*----------------------------------------------------------------------
* Applicable Conditions:
*   Frequency Range = 1MHz - 20GHz
*   Temperature = 25 degC
*   DC Bias Current = 0 A
*   Small Signal Operation
*----------------------------------------------------------------------
.SUBCKT LQW15AN15NG0Z port1 port2
C1 port1 port2 2.58e-14
L2 port1 1 1.72e-8
R2 1 port2 1.10e-1
R3 port1 port2 3.52e+4
L4 port1 2 1.28e-7
R4 2 port2 7.55
L5 port1 3 3.19e-7
R5 3 port2 215
L6 port1 4 7.59e-7
R6 4 port2 4.65e+3
L7 port1 5 2.12e-8
C7 5 6 3.19e-15
R7 6 port2 446
.ENDS LQW15AN15NG0Z
*----------------------------------------------------------------------
*----------------------------------------------------------------------
* SPICE Model generated by Murata Manufacturing Co., Ltd.
* Copyright(C) Murata Manufacturing Co., Ltd.
* MURATA P/N : LQW15AN15NH0Z
* Property : L = 15[nH]
*----------------------------------------------------------------------
* Applicable Conditions:
*   Frequency Range = 1MHz - 20GHz
*   Temperature = 25 degC
*   DC Bias Current = 0 A
*   Small Signal Operation
*----------------------------------------------------------------------
.SUBCKT LQW15AN15NH0Z port1 port2
C1 port1 port2 2.58e-14
L2 port1 1 1.72e-8
R2 1 port2 1.10e-1
R3 port1 port2 3.52e+4
L4 port1 2 1.28e-7
R4 2 port2 7.55
L5 port1 3 3.19e-7
R5 3 port2 215
L6 port1 4 7.59e-7
R6 4 port2 4.65e+3
L7 port1 5 2.12e-8
C7 5 6 3.19e-15
R7 6 port2 446
.ENDS LQW15AN15NH0Z
*----------------------------------------------------------------------
*----------------------------------------------------------------------
* SPICE Model generated by Murata Manufacturing Co., Ltd.
* Copyright(C) Murata Manufacturing Co., Ltd.
* MURATA P/N : LQW15AN15NJ0Z
* Property : L = 15[nH]
*----------------------------------------------------------------------
* Applicable Conditions:
*   Frequency Range = 1MHz - 20GHz
*   Temperature = 25 degC
*   DC Bias Current = 0 A
*   Small Signal Operation
*----------------------------------------------------------------------
.SUBCKT LQW15AN15NJ0Z port1 port2
C1 port1 port2 2.58e-14
L2 port1 1 1.72e-8
R2 1 port2 1.10e-1
R3 port1 port2 3.52e+4
L4 port1 2 1.28e-7
R4 2 port2 7.55
L5 port1 3 3.19e-7
R5 3 port2 215
L6 port1 4 7.59e-7
R6 4 port2 4.65e+3
L7 port1 5 2.12e-8
C7 5 6 3.19e-15
R7 6 port2 446
.ENDS LQW15AN15NJ0Z
*----------------------------------------------------------------------
*----------------------------------------------------------------------
* SPICE Model generated by Murata Manufacturing Co., Ltd.
* Copyright(C) Murata Manufacturing Co., Ltd.
* MURATA P/N : LQW15AN16NG0Z
* Property : L = 16[nH]
*----------------------------------------------------------------------
* Applicable Conditions:
*   Frequency Range = 1MHz - 20GHz
*   Temperature = 25 degC
*   DC Bias Current = 0 A
*   Small Signal Operation
*----------------------------------------------------------------------
.SUBCKT LQW15AN16NG0Z port1 port2
C1 port1 port2 2.36e-14
L2 port1 1 1.81e-8
R2 1 port2 1.70e-1
R3 port1 port2 4.16e+4
L4 port1 2 1.84e-7
R4 2 port2 5.96
L5 port1 3 3.25e-7
R5 3 port2 157
L6 port1 4 6.60e-7
R6 4 port2 3.22e+3
L7 port1 5 2.96e-8
C7 5 6 1.68e-15
R7 6 port2 237
.ENDS LQW15AN16NG0Z
*----------------------------------------------------------------------
*----------------------------------------------------------------------
* SPICE Model generated by Murata Manufacturing Co., Ltd.
* Copyright(C) Murata Manufacturing Co., Ltd.
* MURATA P/N : LQW15AN16NH0Z
* Property : L = 16[nH]
*----------------------------------------------------------------------
* Applicable Conditions:
*   Frequency Range = 1MHz - 20GHz
*   Temperature = 25 degC
*   DC Bias Current = 0 A
*   Small Signal Operation
*----------------------------------------------------------------------
.SUBCKT LQW15AN16NH0Z port1 port2
C1 port1 port2 2.36e-14
L2 port1 1 1.81e-8
R2 1 port2 1.70e-1
R3 port1 port2 4.16e+4
L4 port1 2 1.84e-7
R4 2 port2 5.96
L5 port1 3 3.25e-7
R5 3 port2 157
L6 port1 4 6.60e-7
R6 4 port2 3.22e+3
L7 port1 5 2.96e-8
C7 5 6 1.68e-15
R7 6 port2 237
.ENDS LQW15AN16NH0Z
*----------------------------------------------------------------------
*----------------------------------------------------------------------
* SPICE Model generated by Murata Manufacturing Co., Ltd.
* Copyright(C) Murata Manufacturing Co., Ltd.
* MURATA P/N : LQW15AN16NJ0Z
* Property : L = 16[nH]
*----------------------------------------------------------------------
* Applicable Conditions:
*   Frequency Range = 1MHz - 20GHz
*   Temperature = 25 degC
*   DC Bias Current = 0 A
*   Small Signal Operation
*----------------------------------------------------------------------
.SUBCKT LQW15AN16NJ0Z port1 port2
C1 port1 port2 2.36e-14
L2 port1 1 1.81e-8
R2 1 port2 1.70e-1
R3 port1 port2 4.16e+4
L4 port1 2 1.84e-7
R4 2 port2 5.96
L5 port1 3 3.25e-7
R5 3 port2 157
L6 port1 4 6.60e-7
R6 4 port2 3.22e+3
L7 port1 5 2.96e-8
C7 5 6 1.68e-15
R7 6 port2 237
.ENDS LQW15AN16NJ0Z
*----------------------------------------------------------------------
*----------------------------------------------------------------------
* SPICE Model generated by Murata Manufacturing Co., Ltd.
* Copyright(C) Murata Manufacturing Co., Ltd.
* MURATA P/N : LQW15AN18NG0Z
* Property : L = 18[nH]
*----------------------------------------------------------------------
* Applicable Conditions:
*   Frequency Range = 1MHz - 20GHz
*   Temperature = 25 degC
*   DC Bias Current = 0 A
*   Small Signal Operation
*----------------------------------------------------------------------
.SUBCKT LQW15AN18NG0Z port1 port2
C1 port1 port2 1.93e-14
L2 port1 1 2.10e-8
R2 1 port2 1.90e-1
R3 port1 port2 4.02e+4
L4 port1 2 1.52e-7
R4 2 port2 6.64
L5 port1 3 3.55e-7
R5 3 port2 220
L6 port1 4 7.93e-7
R6 4 port2 5.31e+3
L7 port1 5 4.35e-7
C7 5 6 5.17e-16
R7 6 port2 916
L8 port1 7 3.85e-8
C8 7 8 2.15e-15
R8 8 port2 174
.ENDS LQW15AN18NG0Z
*----------------------------------------------------------------------
*----------------------------------------------------------------------
* SPICE Model generated by Murata Manufacturing Co., Ltd.
* Copyright(C) Murata Manufacturing Co., Ltd.
* MURATA P/N : LQW15AN18NH0Z
* Property : L = 18[nH]
*----------------------------------------------------------------------
* Applicable Conditions:
*   Frequency Range = 1MHz - 20GHz
*   Temperature = 25 degC
*   DC Bias Current = 0 A
*   Small Signal Operation
*----------------------------------------------------------------------
.SUBCKT LQW15AN18NH0Z port1 port2
C1 port1 port2 1.93e-14
L2 port1 1 2.10e-8
R2 1 port2 1.90e-1
R3 port1 port2 4.02e+4
L4 port1 2 1.52e-7
R4 2 port2 6.64
L5 port1 3 3.55e-7
R5 3 port2 220
L6 port1 4 7.93e-7
R6 4 port2 5.31e+3
L7 port1 5 4.35e-7
C7 5 6 5.17e-16
R7 6 port2 916
L8 port1 7 3.85e-8
C8 7 8 2.15e-15
R8 8 port2 174
.ENDS LQW15AN18NH0Z
*----------------------------------------------------------------------
*----------------------------------------------------------------------
* SPICE Model generated by Murata Manufacturing Co., Ltd.
* Copyright(C) Murata Manufacturing Co., Ltd.
* MURATA P/N : LQW15AN18NJ0Z
* Property : L = 18[nH]
*----------------------------------------------------------------------
* Applicable Conditions:
*   Frequency Range = 1MHz - 20GHz
*   Temperature = 25 degC
*   DC Bias Current = 0 A
*   Small Signal Operation
*----------------------------------------------------------------------
.SUBCKT LQW15AN18NJ0Z port1 port2
C1 port1 port2 1.93e-14
L2 port1 1 2.10e-8
R2 1 port2 1.90e-1
R3 port1 port2 4.02e+4
L4 port1 2 1.52e-7
R4 2 port2 6.64
L5 port1 3 3.55e-7
R5 3 port2 220
L6 port1 4 7.93e-7
R6 4 port2 5.31e+3
L7 port1 5 4.35e-7
C7 5 6 5.17e-16
R7 6 port2 916
L8 port1 7 3.85e-8
C8 7 8 2.15e-15
R8 8 port2 174
.ENDS LQW15AN18NJ0Z
*----------------------------------------------------------------------
*----------------------------------------------------------------------
* SPICE Model generated by Murata Manufacturing Co., Ltd.
* Copyright(C) Murata Manufacturing Co., Ltd.
* MURATA P/N : LQW15AN19NG0Z
* Property : L = 19[nH]
*----------------------------------------------------------------------
* Applicable Conditions:
*   Frequency Range = 1MHz - 20GHz
*   Temperature = 25 degC
*   DC Bias Current = 0 A
*   Small Signal Operation
*----------------------------------------------------------------------
.SUBCKT LQW15AN19NG0Z port1 port2
C1 port1 port2 1.77e-14
L2 port1 1 2.30e-8
R2 1 port2 1.90e-1
R3 port1 port2 4.78e+4
L4 port1 2 1.40e-7
R4 2 port2 6.82
L5 port1 3 4.17e-7
R5 3 port2 276
L6 port1 4 9.37e-7
R6 4 port2 5.85e+3
L7 port1 5 5.01e-7
C7 5 6 5.37e-16
R7 6 port2 981
L8 port1 7 4.79e-8
C8 7 8 1.86e-15
R8 8 port2 419
.ENDS LQW15AN19NG0Z
*----------------------------------------------------------------------
*----------------------------------------------------------------------
* SPICE Model generated by Murata Manufacturing Co., Ltd.
* Copyright(C) Murata Manufacturing Co., Ltd.
* MURATA P/N : LQW15AN19NH0Z
* Property : L = 19[nH]
*----------------------------------------------------------------------
* Applicable Conditions:
*   Frequency Range = 1MHz - 20GHz
*   Temperature = 25 degC
*   DC Bias Current = 0 A
*   Small Signal Operation
*----------------------------------------------------------------------
.SUBCKT LQW15AN19NH0Z port1 port2
C1 port1 port2 1.77e-14
L2 port1 1 2.30e-8
R2 1 port2 1.90e-1
R3 port1 port2 4.78e+4
L4 port1 2 1.40e-7
R4 2 port2 6.82
L5 port1 3 4.17e-7
R5 3 port2 276
L6 port1 4 9.37e-7
R6 4 port2 5.85e+3
L7 port1 5 5.01e-7
C7 5 6 5.37e-16
R7 6 port2 981
L8 port1 7 4.79e-8
C8 7 8 1.86e-15
R8 8 port2 419
.ENDS LQW15AN19NH0Z
*----------------------------------------------------------------------
*----------------------------------------------------------------------
* SPICE Model generated by Murata Manufacturing Co., Ltd.
* Copyright(C) Murata Manufacturing Co., Ltd.
* MURATA P/N : LQW15AN19NJ0Z
* Property : L = 19[nH]
*----------------------------------------------------------------------
* Applicable Conditions:
*   Frequency Range = 1MHz - 20GHz
*   Temperature = 25 degC
*   DC Bias Current = 0 A
*   Small Signal Operation
*----------------------------------------------------------------------
.SUBCKT LQW15AN19NJ0Z port1 port2
C1 port1 port2 1.77e-14
L2 port1 1 2.30e-8
R2 1 port2 1.90e-1
R3 port1 port2 4.78e+4
L4 port1 2 1.40e-7
R4 2 port2 6.82
L5 port1 3 4.17e-7
R5 3 port2 276
L6 port1 4 9.37e-7
R6 4 port2 5.85e+3
L7 port1 5 5.01e-7
C7 5 6 5.37e-16
R7 6 port2 981
L8 port1 7 4.79e-8
C8 7 8 1.86e-15
R8 8 port2 419
.ENDS LQW15AN19NJ0Z
*----------------------------------------------------------------------
*----------------------------------------------------------------------
* SPICE Model generated by Murata Manufacturing Co., Ltd.
* Copyright(C) Murata Manufacturing Co., Ltd.
* MURATA P/N : LQW15AN1N5B0Z
* Property : L = 1.5[nH]
*----------------------------------------------------------------------
* Applicable Conditions:
*   Frequency Range = 1MHz - 20GHz
*   Temperature = 25 degC
*   DC Bias Current = 0 A
*   Small Signal Operation
*----------------------------------------------------------------------
.SUBCKT LQW15AN1N5B0Z port1 port2
C1 port1 port2 4.74e-16
L2 port1 1 1.57e-9
R2 1 port2 2.00e-2
R3 port1 port2 5.40e+3
L4 port1 2 6.83e-9
R4 2 port2 2.97e-1
L5 port1 3 2.45e-8
R5 3 port2 16.0
L6 port1 4 1.10e-7
R6 4 port2 768
.ENDS LQW15AN1N5B0Z
*----------------------------------------------------------------------
*----------------------------------------------------------------------
* SPICE Model generated by Murata Manufacturing Co., Ltd.
* Copyright(C) Murata Manufacturing Co., Ltd.
* MURATA P/N : LQW15AN1N5C0Z
* Property : L = 1.5[nH]
*----------------------------------------------------------------------
* Applicable Conditions:
*   Frequency Range = 1MHz - 20GHz
*   Temperature = 25 degC
*   DC Bias Current = 0 A
*   Small Signal Operation
*----------------------------------------------------------------------
.SUBCKT LQW15AN1N5C0Z port1 port2
C1 port1 port2 4.74e-16
L2 port1 1 1.57e-9
R2 1 port2 2.00e-2
R3 port1 port2 5.40e+3
L4 port1 2 6.83e-9
R4 2 port2 2.97e-1
L5 port1 3 2.45e-8
R5 3 port2 16.0
L6 port1 4 1.10e-7
R6 4 port2 768
.ENDS LQW15AN1N5C0Z
*----------------------------------------------------------------------
*----------------------------------------------------------------------
* SPICE Model generated by Murata Manufacturing Co., Ltd.
* Copyright(C) Murata Manufacturing Co., Ltd.
* MURATA P/N : LQW15AN1N5D0Z
* Property : L = 1.5[nH]
*----------------------------------------------------------------------
* Applicable Conditions:
*   Frequency Range = 1MHz - 20GHz
*   Temperature = 25 degC
*   DC Bias Current = 0 A
*   Small Signal Operation
*----------------------------------------------------------------------
.SUBCKT LQW15AN1N5D0Z port1 port2
C1 port1 port2 4.74e-16
L2 port1 1 1.57e-9
R2 1 port2 2.00e-2
R3 port1 port2 5.40e+3
L4 port1 2 6.83e-9
R4 2 port2 2.97e-1
L5 port1 3 2.45e-8
R5 3 port2 16.0
L6 port1 4 1.10e-7
R6 4 port2 768
.ENDS LQW15AN1N5D0Z
*----------------------------------------------------------------------
*----------------------------------------------------------------------
* SPICE Model generated by Murata Manufacturing Co., Ltd.
* Copyright(C) Murata Manufacturing Co., Ltd.
* MURATA P/N : LQW15AN1N6C0Z
* Property : L = 1.6[nH]
*----------------------------------------------------------------------
* Applicable Conditions:
*   Frequency Range = 1MHz - 20GHz
*   Temperature = 25 degC
*   DC Bias Current = 0 A
*   Small Signal Operation
*----------------------------------------------------------------------
.SUBCKT LQW15AN1N6C0Z port1 port2
C1 port1 port2 6.96e-14
L2 port1 1 1.71e-9
R2 1 port2 5.00e-2
R3 port1 port2 1.39e+4
L4 port1 2 5.51e-9
R4 2 port2 6.46e-1
L5 port1 3 1.82e-8
R5 3 port2 60.6
.ENDS LQW15AN1N6C0Z
*----------------------------------------------------------------------
*----------------------------------------------------------------------
* SPICE Model generated by Murata Manufacturing Co., Ltd.
* Copyright(C) Murata Manufacturing Co., Ltd.
* MURATA P/N : LQW15AN1N6D0Z
* Property : L = 1.6[nH]
*----------------------------------------------------------------------
* Applicable Conditions:
*   Frequency Range = 1MHz - 20GHz
*   Temperature = 25 degC
*   DC Bias Current = 0 A
*   Small Signal Operation
*----------------------------------------------------------------------
.SUBCKT LQW15AN1N6D0Z port1 port2
C1 port1 port2 6.96e-14
L2 port1 1 1.71e-9
R2 1 port2 5.00e-2
R3 port1 port2 1.39e+4
L4 port1 2 5.51e-9
R4 2 port2 6.46e-1
L5 port1 3 1.82e-8
R5 3 port2 60.6
.ENDS LQW15AN1N6D0Z
*----------------------------------------------------------------------
*----------------------------------------------------------------------
* SPICE Model generated by Murata Manufacturing Co., Ltd.
* Copyright(C) Murata Manufacturing Co., Ltd.
* MURATA P/N : LQW15AN1N7C0Z
* Property : L = 1.7[nH]
*----------------------------------------------------------------------
* Applicable Conditions:
*   Frequency Range = 1MHz - 20GHz
*   Temperature = 25 degC
*   DC Bias Current = 0 A
*   Small Signal Operation
*----------------------------------------------------------------------
.SUBCKT LQW15AN1N7C0Z port1 port2
C1 port1 port2 5.40e-14
L2 port1 1 1.39e-9
R2 1 port2 7.00e-2
R3 port1 port2 1.01e+4
L4 port1 2 2.42e-8
R4 2 port2 62.3
L5 port1 3 4.98e-8
R5 3 port2 139
.ENDS LQW15AN1N7C0Z
*----------------------------------------------------------------------
*----------------------------------------------------------------------
* SPICE Model generated by Murata Manufacturing Co., Ltd.
* Copyright(C) Murata Manufacturing Co., Ltd.
* MURATA P/N : LQW15AN1N7D0Z
* Property : L = 1.7[nH]
*----------------------------------------------------------------------
* Applicable Conditions:
*   Frequency Range = 1MHz - 20GHz
*   Temperature = 25 degC
*   DC Bias Current = 0 A
*   Small Signal Operation
*----------------------------------------------------------------------
.SUBCKT LQW15AN1N7D0Z port1 port2
C1 port1 port2 5.40e-14
L2 port1 1 1.39e-9
R2 1 port2 7.00e-2
R3 port1 port2 1.01e+4
L4 port1 2 2.42e-8
R4 2 port2 62.3
L5 port1 3 4.98e-8
R5 3 port2 139
.ENDS LQW15AN1N7D0Z
*----------------------------------------------------------------------
*----------------------------------------------------------------------
* SPICE Model generated by Murata Manufacturing Co., Ltd.
* Copyright(C) Murata Manufacturing Co., Ltd.
* MURATA P/N : LQW15AN1N8C0Z
* Property : L = 1.8[nH]
*----------------------------------------------------------------------
* Applicable Conditions:
*   Frequency Range = 1MHz - 20GHz
*   Temperature = 25 degC
*   DC Bias Current = 0 A
*   Small Signal Operation
*----------------------------------------------------------------------
.SUBCKT LQW15AN1N8C0Z port1 port2
C1 port1 port2 2.15e-14
L2 port1 1 1.49e-9
R2 1 port2 1.10e-1
R3 port1 port2 6.53e+3
L4 port1 2 3.05e-8
R4 2 port2 62.3
L5 port1 3 4.98e-8
R5 3 port2 441
.ENDS LQW15AN1N8C0Z
*----------------------------------------------------------------------
*----------------------------------------------------------------------
* SPICE Model generated by Murata Manufacturing Co., Ltd.
* Copyright(C) Murata Manufacturing Co., Ltd.
* MURATA P/N : LQW15AN1N8D0Z
* Property : L = 1.8[nH]
*----------------------------------------------------------------------
* Applicable Conditions:
*   Frequency Range = 1MHz - 20GHz
*   Temperature = 25 degC
*   DC Bias Current = 0 A
*   Small Signal Operation
*----------------------------------------------------------------------
.SUBCKT LQW15AN1N8D0Z port1 port2
C1 port1 port2 2.15e-14
L2 port1 1 1.49e-9
R2 1 port2 1.10e-1
R3 port1 port2 6.53e+3
L4 port1 2 3.05e-8
R4 2 port2 62.3
L5 port1 3 4.98e-8
R5 3 port2 441
.ENDS LQW15AN1N8D0Z
*----------------------------------------------------------------------
*----------------------------------------------------------------------
* SPICE Model generated by Murata Manufacturing Co., Ltd.
* Copyright(C) Murata Manufacturing Co., Ltd.
* MURATA P/N : LQW15AN20NG0Z
* Property : L = 20[nH]
*----------------------------------------------------------------------
* Applicable Conditions:
*   Frequency Range = 1MHz - 20GHz
*   Temperature = 25 degC
*   DC Bias Current = 0 A
*   Small Signal Operation
*----------------------------------------------------------------------
.SUBCKT LQW15AN20NG0Z port1 port2
C1 port1 port2 2.26e-14
L2 port1 1 2.43e-8
R2 1 port2 1.90e-1
R3 port1 port2 4.28e+4
L4 port1 2 1.52e-7
R4 2 port2 7.82
L5 port1 3 4.53e-7
R5 3 port2 327
L6 port1 4 1.05e-6
R6 4 port2 6.79e+3
L7 port1 5 5.22e-7
C7 5 6 4.80e-16
R7 6 port2 3.56e+3
L8 port1 7 5.44e-8
C8 7 8 1.56e-15
R8 8 port2 148
.ENDS LQW15AN20NG0Z
*----------------------------------------------------------------------
*----------------------------------------------------------------------
* SPICE Model generated by Murata Manufacturing Co., Ltd.
* Copyright(C) Murata Manufacturing Co., Ltd.
* MURATA P/N : LQW15AN20NH0Z
* Property : L = 20[nH]
*----------------------------------------------------------------------
* Applicable Conditions:
*   Frequency Range = 1MHz - 20GHz
*   Temperature = 25 degC
*   DC Bias Current = 0 A
*   Small Signal Operation
*----------------------------------------------------------------------