*----------------------------------------------------------------------
* SPICE Model generated by Murata Manufacturing Co., Ltd.
* Copyright(C) Murata Manufacturing Co., Ltd.
* MURATA P/N : LQW15AN10NG8Z
* Property : L = 10[nH]
*----------------------------------------------------------------------
* Applicable Conditions:
*   Frequency Range = 1MHz - 20GHz
*   Temperature = 25 degC
*   DC Bias Current = 0 A
*   Small Signal Operation
*----------------------------------------------------------------------
.SUBCKT LQW15AN10NG8Z port1 port2
C1 port1 port2 4.00e-14
L2 port1 1 1.06e-8
R2 1 port2 6.70e-2
R3 port1 port2 1.42e+4
L4 port1 2 1.13e-7
R4 2 port2 28.2
L5 port1 3 4.19e-7
R5 3 port2 1.10e+3
L6 port1 4 2.23e-6
C6 4 5 3.89e-17
R6 5 port2 7.03e+3
.ENDS LQW15AN10NG8Z
*----------------------------------------------------------------------
*----------------------------------------------------------------------
* SPICE Model generated by Murata Manufacturing Co., Ltd.
* Copyright(C) Murata Manufacturing Co., Ltd.
* MURATA P/N : LQW15AN10NJ8Z
* Property : L = 10[nH]
*----------------------------------------------------------------------
* Applicable Conditions:
*   Frequency Range = 1MHz - 20GHz
*   Temperature = 25 degC
*   DC Bias Current = 0 A
*   Small Signal Operation
*----------------------------------------------------------------------
.SUBCKT LQW15AN10NJ8Z port1 port2
C1 port1 port2 4.00e-14
L2 port1 1 1.06e-8
R2 1 port2 6.70e-2
R3 port1 port2 1.42e+4
L4 port1 2 1.13e-7
R4 2 port2 28.2
L5 port1 3 4.19e-7
R5 3 port2 1.10e+3
L6 port1 4 2.23e-6
C6 4 5 3.89e-17
R6 5 port2 7.03e+3
.ENDS LQW15AN10NJ8Z
*----------------------------------------------------------------------
*----------------------------------------------------------------------
* SPICE Model generated by Murata Manufacturing Co., Ltd.
* Copyright(C) Murata Manufacturing Co., Ltd.
* MURATA P/N : LQW15AN11NG8Z
* Property : L = 11[nH]
*----------------------------------------------------------------------
* Applicable Conditions:
*   Frequency Range = 1MHz - 20GHz
*   Temperature = 25 degC
*   DC Bias Current = 0 A
*   Small Signal Operation
*----------------------------------------------------------------------
.SUBCKT LQW15AN11NG8Z port1 port2
C1 port1 port2 3.73e-14
L2 port1 1 1.19e-8
R2 1 port2 6.90e-2
R3 port1 port2 1.42e+4
L4 port1 2 1.21e-7
R4 2 port2 28.2
L5 port1 3 4.70e-7
R5 3 port2 1.15e+3
L6 port1 4 2.23e-6
C6 4 5 4.57e-17
R6 5 port2 7.03e+3
.ENDS LQW15AN11NG8Z
*----------------------------------------------------------------------
*----------------------------------------------------------------------
* SPICE Model generated by Murata Manufacturing Co., Ltd.
* Copyright(C) Murata Manufacturing Co., Ltd.
* MURATA P/N : LQW15AN11NJ8Z
* Property : L = 11[nH]
*----------------------------------------------------------------------
* Applicable Conditions:
*   Frequency Range = 1MHz - 20GHz
*   Temperature = 25 degC
*   DC Bias Current = 0 A
*   Small Signal Operation
*----------------------------------------------------------------------
.SUBCKT LQW15AN11NJ8Z port1 port2
C1 port1 port2 3.73e-14
L2 port1 1 1.19e-8
R2 1 port2 6.90e-2
R3 port1 port2 1.42e+4
L4 port1 2 1.21e-7
R4 2 port2 28.2
L5 port1 3 4.70e-7
R5 3 port2 1.15e+3
L6 port1 4 2.23e-6
C6 4 5 4.57e-17
R6 5 port2 7.03e+3
.ENDS LQW15AN11NJ8Z
*----------------------------------------------------------------------
*----------------------------------------------------------------------
* SPICE Model generated by Murata Manufacturing Co., Ltd.
* Copyright(C) Murata Manufacturing Co., Ltd.
* MURATA P/N : LQW15AN12NG8Z
* Property : L = 12[nH]
*----------------------------------------------------------------------
* Applicable Conditions:
*   Frequency Range = 1MHz - 20GHz
*   Temperature = 25 degC
*   DC Bias Current = 0 A
*   Small Signal Operation
*----------------------------------------------------------------------
.SUBCKT LQW15AN12NG8Z port1 port2
C1 port1 port2 3.40e-14
L2 port1 1 1.28e-8
R2 1 port2 7.70e-2
R3 port1 port2 1.42e+4
L4 port1 2 1.30e-7
R4 2 port2 28.2
L5 port1 3 4.70e-7
R5 3 port2 1.12e+3
L6 port1 4 2.23e-6
C6 4 5 5.49e-17
R6 5 port2 7.03e+3
.ENDS LQW15AN12NG8Z
*----------------------------------------------------------------------
*----------------------------------------------------------------------
* SPICE Model generated by Murata Manufacturing Co., Ltd.
* Copyright(C) Murata Manufacturing Co., Ltd.
* MURATA P/N : LQW15AN12NJ8Z
* Property : L = 12[nH]
*----------------------------------------------------------------------
* Applicable Conditions:
*   Frequency Range = 1MHz - 20GHz
*   Temperature = 25 degC
*   DC Bias Current = 0 A
*   Small Signal Operation
*----------------------------------------------------------------------
.SUBCKT LQW15AN12NJ8Z port1 port2
C1 port1 port2 3.40e-14
L2 port1 1 1.28e-8
R2 1 port2 7.70e-2
R3 port1 port2 1.42e+4
L4 port1 2 1.30e-7
R4 2 port2 28.2
L5 port1 3 4.70e-7
R5 3 port2 1.12e+3
L6 port1 4 2.23e-6
C6 4 5 5.49e-17
R6 5 port2 7.03e+3
.ENDS LQW15AN12NJ8Z
*----------------------------------------------------------------------
*----------------------------------------------------------------------
* SPICE Model generated by Murata Manufacturing Co., Ltd.
* Copyright(C) Murata Manufacturing Co., Ltd.
* MURATA P/N : LQW15AN13NG8Z
* Property : L = 13[nH]
*----------------------------------------------------------------------
* Applicable Conditions:
*   Frequency Range = 1MHz - 20GHz
*   Temperature = 25 degC
*   DC Bias Current = 0 A
*   Small Signal Operation
*----------------------------------------------------------------------
.SUBCKT LQW15AN13NG8Z port1 port2
C1 port1 port2 3.64e-14
L2 port1 1 1.37e-8
R2 1 port2 7.70e-2
R3 port1 port2 1.42e+4
L4 port1 2 1.53e-7
R4 2 port2 33.9
L5 port1 3 5.04e-7
R5 3 port2 1.12e+3
L6 port1 4 2.23e-6
C6 4 5 5.49e-17
R6 5 port2 7.03e+3
.ENDS LQW15AN13NG8Z
*----------------------------------------------------------------------
*----------------------------------------------------------------------
* SPICE Model generated by Murata Manufacturing Co., Ltd.
* Copyright(C) Murata Manufacturing Co., Ltd.
* MURATA P/N : LQW15AN13NJ8Z
* Property : L = 13[nH]
*----------------------------------------------------------------------
* Applicable Conditions:
*   Frequency Range = 1MHz - 20GHz
*   Temperature = 25 degC
*   DC Bias Current = 0 A
*   Small Signal Operation
*----------------------------------------------------------------------
.SUBCKT LQW15AN13NJ8Z port1 port2
C1 port1 port2 3.64e-14
L2 port1 1 1.37e-8
R2 1 port2 7.70e-2
R3 port1 port2 1.42e+4
L4 port1 2 1.53e-7
R4 2 port2 33.9
L5 port1 3 5.04e-7
R5 3 port2 1.12e+3
L6 port1 4 2.23e-6
C6 4 5 5.49e-17
R6 5 port2 7.03e+3
.ENDS LQW15AN13NJ8Z
*----------------------------------------------------------------------
*----------------------------------------------------------------------
* SPICE Model generated by Murata Manufacturing Co., Ltd.
* Copyright(C) Murata Manufacturing Co., Ltd.
* MURATA P/N : LQW15AN14NG8Z
* Property : L = 14[nH]
*----------------------------------------------------------------------
* Applicable Conditions:
*   Frequency Range = 1MHz - 20GHz
*   Temperature = 25 degC
*   DC Bias Current = 0 A
*   Small Signal Operation
*----------------------------------------------------------------------
.SUBCKT LQW15AN14NG8Z port1 port2
C1 port1 port2 3.56e-14
L2 port1 1 1.50e-8
R2 1 port2 9.20e-2
R3 port1 port2 1.42e+4
L4 port1 2 1.53e-7
R4 2 port2 37.2
L5 port1 3 6.20e-7
R5 3 port2 1.70e+3
L6 port1 4 2.28e-6
C6 4 5 6.45e-17
R6 5 port2 7.03e+3
.ENDS LQW15AN14NG8Z
*----------------------------------------------------------------------
*----------------------------------------------------------------------
* SPICE Model generated by Murata Manufacturing Co., Ltd.
* Copyright(C) Murata Manufacturing Co., Ltd.
* MURATA P/N : LQW15AN14NJ8Z
* Property : L = 14[nH]
*----------------------------------------------------------------------
* Applicable Conditions:
*   Frequency Range = 1MHz - 20GHz
*   Temperature = 25 degC
*   DC Bias Current = 0 A
*   Small Signal Operation
*----------------------------------------------------------------------
.SUBCKT LQW15AN14NJ8Z port1 port2
C1 port1 port2 3.56e-14
L2 port1 1 1.50e-8
R2 1 port2 9.20e-2
R3 port1 port2 1.42e+4
L4 port1 2 1.53e-7
R4 2 port2 37.2
L5 port1 3 6.20e-7
R5 3 port2 1.70e+3
L6 port1 4 2.28e-6
C6 4 5 6.45e-17
R6 5 port2 7.03e+3
.ENDS LQW15AN14NJ8Z
*----------------------------------------------------------------------
*----------------------------------------------------------------------
* SPICE Model generated by Murata Manufacturing Co., Ltd.
* Copyright(C) Murata Manufacturing Co., Ltd.
* MURATA P/N : LQW15AN15NG8Z
* Property : L = 15[nH]
*----------------------------------------------------------------------
* Applicable Conditions:
*   Frequency Range = 1MHz - 20GHz
*   Temperature = 25 degC
*   DC Bias Current = 0 A
*   Small Signal Operation
*----------------------------------------------------------------------
.SUBCKT LQW15AN15NG8Z port1 port2
C1 port1 port2 3.90e-14
L2 port1 1 1.61e-8
R2 1 port2 9.50e-2
R3 port1 port2 1.42e+4
L4 port1 2 1.72e-7
R4 2 port2 42.7
L5 port1 3 6.80e-7
R5 3 port2 1.70e+3
L6 port1 4 2.28e-6
C6 4 5 6.60e-17
R6 5 port2 7.03e+3
.ENDS LQW15AN15NG8Z
*----------------------------------------------------------------------
*----------------------------------------------------------------------
* SPICE Model generated by Murata Manufacturing Co., Ltd.
* Copyright(C) Murata Manufacturing Co., Ltd.
* MURATA P/N : LQW15AN15NJ8Z
* Property : L = 15[nH]
*----------------------------------------------------------------------
* Applicable Conditions:
*   Frequency Range = 1MHz - 20GHz
*   Temperature = 25 degC
*   DC Bias Current = 0 A
*   Small Signal Operation
*----------------------------------------------------------------------
.SUBCKT LQW15AN15NJ8Z port1 port2
C1 port1 port2 3.90e-14
L2 port1 1 1.61e-8
R2 1 port2 9.50e-2
R3 port1 port2 1.42e+4
L4 port1 2 1.72e-7
R4 2 port2 42.7
L5 port1 3 6.80e-7
R5 3 port2 1.70e+3
L6 port1 4 2.28e-6
C6 4 5 6.60e-17
R6 5 port2 7.03e+3
.ENDS LQW15AN15NJ8Z
*----------------------------------------------------------------------
*----------------------------------------------------------------------
* SPICE Model generated by Murata Manufacturing Co., Ltd.
* Copyright(C) Murata Manufacturing Co., Ltd.
* MURATA P/N : LQW15AN16NG8Z
* Property : L = 16[nH]
*----------------------------------------------------------------------
* Applicable Conditions:
*   Frequency Range = 1MHz - 20GHz
*   Temperature = 25 degC
*   DC Bias Current = 0 A
*   Small Signal Operation
*----------------------------------------------------------------------
.SUBCKT LQW15AN16NG8Z port1 port2
C1 port1 port2 3.24e-14
L2 port1 1 1.69e-8
R2 1 port2 1.05e-1
R3 port1 port2 1.42e+4
L4 port1 2 2.02e-7
R4 2 port2 55.0
L5 port1 3 6.80e-7
R5 3 port2 1.55e+3
L6 port1 4 2.28e-6
C6 4 5 7.24e-17
R6 5 port2 7.03e+3
.ENDS LQW15AN16NG8Z
*----------------------------------------------------------------------
*----------------------------------------------------------------------
* SPICE Model generated by Murata Manufacturing Co., Ltd.
* Copyright(C) Murata Manufacturing Co., Ltd.
* MURATA P/N : LQW15AN16NJ8Z
* Property : L = 16[nH]
*----------------------------------------------------------------------
* Applicable Conditions:
*   Frequency Range = 1MHz - 20GHz
*   Temperature = 25 degC
*   DC Bias Current = 0 A
*   Small Signal Operation
*----------------------------------------------------------------------
.SUBCKT LQW15AN16NJ8Z port1 port2
C1 port1 port2 3.24e-14
L2 port1 1 1.69e-8
R2 1 port2 1.05e-1
R3 port1 port2 1.42e+4
L4 port1 2 2.02e-7
R4 2 port2 55.0
L5 port1 3 6.80e-7
R5 3 port2 1.55e+3
L6 port1 4 2.28e-6
C6 4 5 7.24e-17
R6 5 port2 7.03e+3
.ENDS LQW15AN16NJ8Z
*----------------------------------------------------------------------
*----------------------------------------------------------------------
* SPICE Model generated by Murata Manufacturing Co., Ltd.
* Copyright(C) Murata Manufacturing Co., Ltd.
* MURATA P/N : LQW15AN17NG8Z
* Property : L = 17[nH]
*----------------------------------------------------------------------
* Applicable Conditions:
*   Frequency Range = 1MHz - 20GHz
*   Temperature = 25 degC
*   DC Bias Current = 0 A
*   Small Signal Operation
*----------------------------------------------------------------------
.SUBCKT LQW15AN17NG8Z port1 port2
C1 port1 port2 3.17e-14
L2 port1 1 1.81e-8
R2 1 port2 1.05e-1
R3 port1 port2 1.42e+4
L4 port1 2 2.02e-7
R4 2 port2 55.0
L5 port1 3 7.99e-7
R5 3 port2 2.04e+3
L6 port1 4 2.28e-6
C6 4 5 8.12e-17
R6 5 port2 7.03e+3
.ENDS LQW15AN17NG8Z
*----------------------------------------------------------------------
*----------------------------------------------------------------------
* SPICE Model generated by Murata Manufacturing Co., Ltd.
* Copyright(C) Murata Manufacturing Co., Ltd.
* MURATA P/N : LQW15AN17NJ8Z
* Property : L = 17[nH]
*----------------------------------------------------------------------
* Applicable Conditions:
*   Frequency Range = 1MHz - 20GHz
*   Temperature = 25 degC
*   DC Bias Current = 0 A
*   Small Signal Operation
*----------------------------------------------------------------------
.SUBCKT LQW15AN17NJ8Z port1 port2
C1 port1 port2 3.17e-14
L2 port1 1 1.81e-8
R2 1 port2 1.05e-1
R3 port1 port2 1.42e+4
L4 port1 2 2.02e-7
R4 2 port2 55.0
L5 port1 3 7.99e-7
R5 3 port2 2.04e+3
L6 port1 4 2.28e-6
C6 4 5 8.12e-17
R6 5 port2 7.03e+3
.ENDS LQW15AN17NJ8Z
*----------------------------------------------------------------------
*----------------------------------------------------------------------
* SPICE Model generated by Murata Manufacturing Co., Ltd.
* Copyright(C) Murata Manufacturing Co., Ltd.
* MURATA P/N : LQW15AN18NG8Z
* Property : L = 18[nH]
*----------------------------------------------------------------------
* Applicable Conditions:
*   Frequency Range = 1MHz - 20GHz
*   Temperature = 25 degC
*   DC Bias Current = 0 A
*   Small Signal Operation
*----------------------------------------------------------------------
.SUBCKT LQW15AN18NG8Z port1 port2
C1 port1 port2 3.56e-14
L2 port1 1 1.94e-8
R2 1 port2 1.08e-1
R3 port1 port2 1.42e+4
L4 port1 2 2.12e-7
R4 2 port2 50.2
L5 port1 3 7.99e-7
R5 3 port2 2.04e+3
L6 port1 4 2.28e-6
C6 4 5 8.70e-17
R6 5 port2 7.03e+3
.ENDS LQW15AN18NG8Z
*----------------------------------------------------------------------
*----------------------------------------------------------------------
* SPICE Model generated by Murata Manufacturing Co., Ltd.
* Copyright(C) Murata Manufacturing Co., Ltd.
* MURATA P/N : LQW15AN18NJ8Z
* Property : L = 18[nH]
*----------------------------------------------------------------------
* Applicable Conditions:
*   Frequency Range = 1MHz - 20GHz
*   Temperature = 25 degC
*   DC Bias Current = 0 A
*   Small Signal Operation
*----------------------------------------------------------------------
.SUBCKT LQW15AN18NJ8Z port1 port2
C1 port1 port2 3.56e-14
L2 port1 1 1.94e-8
R2 1 port2 1.08e-1
R3 port1 port2 1.42e+4
L4 port1 2 2.12e-7
R4 2 port2 50.2
L5 port1 3 7.99e-7
R5 3 port2 2.04e+3
L6 port1 4 2.28e-6
C6 4 5 8.70e-17
R6 5 port2 7.03e+3
.ENDS LQW15AN18NJ8Z
*----------------------------------------------------------------------
*----------------------------------------------------------------------
* SPICE Model generated by Murata Manufacturing Co., Ltd.
* Copyright(C) Murata Manufacturing Co., Ltd.
* MURATA P/N : LQW15AN19NG8Z
* Property : L = 19[nH]
*----------------------------------------------------------------------
* Applicable Conditions:
*   Frequency Range = 1MHz - 20GHz
*   Temperature = 25 degC
*   DC Bias Current = 0 A
*   Small Signal Operation
*----------------------------------------------------------------------
.SUBCKT LQW15AN19NG8Z port1 port2
C1 port1 port2 3.64e-14
L2 port1 1 2.03e-8
R2 1 port2 1.08e-1
R3 port1 port2 1.42e+4
L4 port1 2 2.02e-7
R4 2 port2 50.2
L5 port1 3 7.99e-7
R5 3 port2 1.70e+3
L6 port1 4 2.28e-6
C6 4 5 8.70e-17
R6 5 port2 7.03e+3
.ENDS LQW15AN19NG8Z
*----------------------------------------------------------------------
*----------------------------------------------------------------------
* SPICE Model generated by Murata Manufacturing Co., Ltd.
* Copyright(C) Murata Manufacturing Co., Ltd.
* MURATA P/N : LQW15AN19NJ8Z
* Property : L = 19[nH]
*----------------------------------------------------------------------
* Applicable Conditions:
*   Frequency Range = 1MHz - 20GHz
*   Temperature = 25 degC
*   DC Bias Current = 0 A
*   Small Signal Operation
*----------------------------------------------------------------------
.SUBCKT LQW15AN19NJ8Z port1 port2
C1 port1 port2 3.64e-14
L2 port1 1 2.03e-8
R2 1 port2 1.08e-1
R3 port1 port2 1.42e+4
L4 port1 2 2.02e-7
R4 2 port2 50.2
L5 port1 3 7.99e-7
R5 3 port2 1.70e+3
L6 port1 4 2.28e-6
C6 4 5 8.70e-17
R6 5 port2 7.03e+3
.ENDS LQW15AN19NJ8Z
*----------------------------------------------------------------------
*----------------------------------------------------------------------
* SPICE Model generated by Murata Manufacturing Co., Ltd.
* Copyright(C) Murata Manufacturing Co., Ltd.
* MURATA P/N : LQW15AN1N3C8Z
* Property : L = 1.3[nH]
*----------------------------------------------------------------------
* Applicable Conditions:
*   Frequency Range = 1MHz - 20GHz
*   Temperature = 25 degC
*   DC Bias Current = 0 A
*   Small Signal Operation
*----------------------------------------------------------------------
.SUBCKT LQW15AN1N3C8Z port1 port2
C1 port1 port2 1.85e-14
L2 port1 1 1.39e-9
R2 1 port2 1.00e-2
R3 port1 port2 1.42e+4
L4 port1 2 3.04e-9
R4 2 port2 1.35e-1
L5 port1 3 8.62e-8
R5 3 port2 557
.ENDS LQW15AN1N3C8Z
*----------------------------------------------------------------------
*----------------------------------------------------------------------
* SPICE Model generated by Murata Manufacturing Co., Ltd.
* Copyright(C) Murata Manufacturing Co., Ltd.
* MURATA P/N : LQW15AN1N3D8Z
* Property : L = 1.3[nH]
*----------------------------------------------------------------------
* Applicable Conditions:
*   Frequency Range = 1MHz - 20GHz
*   Temperature = 25 degC
*   DC Bias Current = 0 A
*   Small Signal Operation
*----------------------------------------------------------------------
.SUBCKT LQW15AN1N3D8Z port1 port2
C1 port1 port2 1.85e-14
L2 port1 1 1.39e-9
R2 1 port2 1.00e-2
R3 port1 port2 1.42e+4
L4 port1 2 3.04e-9
R4 2 port2 1.35e-1
L5 port1 3 8.62e-8
R5 3 port2 557
.ENDS LQW15AN1N3D8Z
*----------------------------------------------------------------------
*----------------------------------------------------------------------
* SPICE Model generated by Murata Manufacturing Co., Ltd.
* Copyright(C) Murata Manufacturing Co., Ltd.
* MURATA P/N : LQW15AN1N5C8Z
* Property : L = 1.5[nH]
*----------------------------------------------------------------------
* Applicable Conditions:
*   Frequency Range = 1MHz - 20GHz
*   Temperature = 25 degC
*   DC Bias Current = 0 A
*   Small Signal Operation
*----------------------------------------------------------------------
.SUBCKT LQW15AN1N5C8Z port1 port2
C1 port1 port2 5.72e-15
L2 port1 1 1.24e-9
R2 1 port2 2.30e-2
R3 port1 port2 1.42e+4
L4 port1 2 1.03e-7
R4 2 port2 5.46e-1
L5 port1 3 3.65e-8
R5 3 port2 113
.ENDS LQW15AN1N5C8Z
*----------------------------------------------------------------------
*----------------------------------------------------------------------
* SPICE Model generated by Murata Manufacturing Co., Ltd.
* Copyright(C) Murata Manufacturing Co., Ltd.
* MURATA P/N : LQW15AN1N5D8Z
* Property : L = 1.5[nH]
*----------------------------------------------------------------------
* Applicable Conditions:
*   Frequency Range = 1MHz - 20GHz
*   Temperature = 25 degC
*   DC Bias Current = 0 A
*   Small Signal Operation
*----------------------------------------------------------------------
.SUBCKT LQW15AN1N5D8Z port1 port2
C1 port1 port2 5.72e-15
L2 port1 1 1.24e-9
R2 1 port2 2.30e-2
R3 port1 port2 1.42e+4
L4 port1 2 1.03e-7
R4 2 port2 5.46e-1
L5 port1 3 3.65e-8
R5 3 port2 113
.ENDS LQW15AN1N5D8Z
*----------------------------------------------------------------------
*----------------------------------------------------------------------
* SPICE Model generated by Murata Manufacturing Co., Ltd.
* Copyright(C) Murata Manufacturing Co., Ltd.
* MURATA P/N : LQW15AN1N6C8Z
* Property : L = 1.6[nH]
*----------------------------------------------------------------------
* Applicable Conditions:
*   Frequency Range = 1MHz - 20GHz
*   Temperature = 25 degC
*   DC Bias Current = 0 A
*   Small Signal Operation
*----------------------------------------------------------------------
.SUBCKT LQW15AN1N6C8Z port1 port2
C1 port1 port2 3.37e-15
L2 port1 1 1.30e-9
R2 1 port2 3.70e-2
R3 port1 port2 1.42e+4
L4 port1 2 2.57e-2
R4 2 port2 11.2
L5 port1 3 3.74e-8
R5 3 port2 108
.ENDS LQW15AN1N6C8Z
*----------------------------------------------------------------------
*----------------------------------------------------------------------
* SPICE Model generated by Murata Manufacturing Co., Ltd.
* Copyright(C) Murata Manufacturing Co., Ltd.
* MURATA P/N : LQW15AN1N6D8Z
* Property : L = 1.6[nH]
*----------------------------------------------------------------------
* Applicable Conditions:
*   Frequency Range = 1MHz - 20GHz
*   Temperature = 25 degC
*   DC Bias Current = 0 A
*   Small Signal Operation
*----------------------------------------------------------------------
.SUBCKT LQW15AN1N6D8Z port1 port2
C1 port1 port2 3.37e-15
L2 port1 1 1.30e-9
R2 1 port2 3.70e-2
R3 port1 port2 1.42e+4
L4 port1 2 2.57e-2
R4 2 port2 11.2
L5 port1 3 3.74e-8
R5 3 port2 108
.ENDS LQW15AN1N6D8Z
*----------------------------------------------------------------------
*----------------------------------------------------------------------
* SPICE Model generated by Murata Manufacturing Co., Ltd.
* Copyright(C) Murata Manufacturing Co., Ltd.
* MURATA P/N : LQW15AN1N7C8Z
* Property : L = 1.7[nH]
*----------------------------------------------------------------------
* Applicable Conditions:
*   Frequency Range = 1MHz - 20GHz
*   Temperature = 25 degC
*   DC Bias Current = 0 A
*   Small Signal Operation
*----------------------------------------------------------------------
.SUBCKT LQW15AN1N7C8Z port1 port2
C1 port1 port2 9.08e-15
L2 port1 1 1.24e-9
R2 1 port2 5.40e-2
R3 port1 port2 1.42e+4
L4 port1 2 5.96e-7
R4 2 port2 8.80
L5 port1 3 3.49e-8
R5 3 port2 108
.ENDS LQW15AN1N7C8Z
*----------------------------------------------------------------------
*----------------------------------------------------------------------
* SPICE Model generated by Murata Manufacturing Co., Ltd.
* Copyright(C) Murata Manufacturing Co., Ltd.
* MURATA P/N : LQW15AN1N7D8Z
* Property : L = 1.7[nH]
*----------------------------------------------------------------------
* Applicable Conditions:
*   Frequency Range = 1MHz - 20GHz
*   Temperature = 25 degC
*   DC Bias Current = 0 A
*   Small Signal Operation
*----------------------------------------------------------------------
.SUBCKT LQW15AN1N7D8Z port1 port2
C1 port1 port2 9.08e-15
L2 port1 1 1.24e-9
R2 1 port2 5.40e-2
R3 port1 port2 1.42e+4
L4 port1 2 5.96e-7
R4 2 port2 8.80
L5 port1 3 3.49e-8
R5 3 port2 108
.ENDS LQW15AN1N7D8Z
*----------------------------------------------------------------------
*----------------------------------------------------------------------
* SPICE Model generated by Murata Manufacturing Co., Ltd.
* Copyright(C) Murata Manufacturing Co., Ltd.
* MURATA P/N : LQW15AN20NG8Z
* Property : L = 20[nH]
*----------------------------------------------------------------------
* Applicable Conditions:
*   Frequency Range = 1MHz - 20GHz
*   Temperature = 25 degC
*   DC Bias Current = 0 A
*   Small Signal Operation
*----------------------------------------------------------------------
.SUBCKT LQW15AN20NG8Z port1 port2
C1 port1 port2 3.64e-14
L2 port1 1 2.13e-8
R2 1 port2 1.55e-1
R3 port1 port2 1.42e+4
L4 port1 2 2.49e-7
R4 2 port2 61.8
L5 port1 3 8.18e-7
R5 3 port2 1.70e+3
L6 port1 4 2.28e-6
C6 4 5 8.70e-17
R6 5 port2 7.03e+3
.ENDS LQW15AN20NG8Z
*----------------------------------------------------------------------
*----------------------------------------------------------------------
* SPICE Model generated by Murata Manufacturing Co., Ltd.
* Copyright(C) Murata Manufacturing Co., Ltd.
* MURATA P/N : LQW15AN20NJ8Z
* Property : L = 20[nH]
*----------------------------------------------------------------------
* Applicable Conditions:
*   Frequency Range = 1MHz - 20GHz
*   Temperature = 25 degC
*   DC Bias Current = 0 A
*   Small Signal Operation
*----------------------------------------------------------------------
.SUBCKT LQW15AN20NJ8Z port1 port2
C1 port1 port2 3.64e-14
L2 port1 1 2.13e-8
R2 1 port2 1.55e-1
R3 port1 port2 1.42e+4
L4 port1 2 2.49e-7
R4 2 port2 61.8
L5 port1 3 8.18e-7
R5 3 port2 1.70e+3
L6 port1 4 2.28e-6
C6 4 5 8.70e-17
R6 5 port2 7.03e+3
.ENDS LQW15AN20NJ8Z
*----------------------------------------------------------------------
*----------------------------------------------------------------------
* SPICE Model generated by Murata Manufacturing Co., Ltd.
* Copyright(C) Murata Manufacturing Co., Ltd.
* MURATA P/N : LQW15AN21NG8Z
* Property : L = 21[nH]
*----------------------------------------------------------------------
* Applicable Conditions:
*   Frequency Range = 1MHz - 20GHz
*   Temperature = 25 degC
*   DC Bias Current = 0 A
*   Small Signal Operation
*----------------------------------------------------------------------
.SUBCKT LQW15AN21NG8Z port1 port2
C1 port1 port2 2.96e-14
L2 port1 1 2.23e-8
R2 1 port2 1.68e-1
R3 port1 port2 1.42e+4
L4 port1 2 2.61e-7
R4 2 port2 61.8
L5 port1 3 8.18e-7
R5 3 port2 1.62e+3
L6 port1 4 2.28e-6
C6 4 5 8.70e-17
R6 5 port2 7.03e+3
.ENDS LQW15AN21NG8Z
*----------------------------------------------------------------------
*----------------------------------------------------------------------
* SPICE Model generated by Murata Manufacturing Co., Ltd.
* Copyright(C) Murata Manufacturing Co., Ltd.
* MURATA P/N : LQW15AN21NJ8Z
* Property : L = 21[nH]
*----------------------------------------------------------------------
* Applicable Conditions:
*   Frequency Range = 1MHz - 20GHz
*   Temperature = 25 degC
*   DC Bias Current = 0 A
*   Small Signal Operation
*----------------------------------------------------------------------
.SUBCKT LQW15AN21NJ8Z port1 port2
C1 port1 port2 2.96e-14
L2 port1 1 2.23e-8
R2 1 port2 1.68e-1
R3 port1 port2 1.42e+4
L4 port1 2 2.61e-7
R4 2 port2 61.8
L5 port1 3 8.18e-7
R5 3 port2 1.62e+3
L6 port1 4 2.28e-6
C6 4 5 8.70e-17
R6 5 port2 7.03e+3
.ENDS LQW15AN21NJ8Z
*----------------------------------------------------------------------
*----------------------------------------------------------------------
* SPICE Model generated by Murata Manufacturing Co., Ltd.
* Copyright(C) Murata Manufacturing Co., Ltd.
* MURATA P/N : LQW15AN22NG8Z
* Property : L = 22[nH]
*----------------------------------------------------------------------
* Applicable Conditions:
*   Frequency Range = 1MHz - 20GHz
*   Temperature = 25 degC
*   DC Bias Current = 0 A
*   Small Signal Operation
*----------------------------------------------------------------------
.SUBCKT LQW15AN22NG8Z port1 port2
C1 port1 port2 2.96e-14
L2 port1 1 2.34e-8
R2 1 port2 1.68e-1
R3 port1 port2 1.42e+4
L4 port1 2 2.80e-7
R4 2 port2 61.8
L5 port1 3 8.18e-7
R5 3 port2 1.62e+3
L6 port1 4 2.28e-6
C6 4 5 9.54e-17
R6 5 port2 7.03e+3
.ENDS LQW15AN22NG8Z
*----------------------------------------------------------------------
*----------------------------------------------------------------------
* SPICE Model generated by Murata Manufacturing Co., Ltd.
* Copyright(C) Murata Manufacturing Co., Ltd.
* MURATA P/N : LQW15AN22NJ8Z
* Property : L = 22[nH]
*----------------------------------------------------------------------
* Applicable Conditions:
*   Frequency Range = 1MHz - 20GHz
*   Temperature = 25 degC
*   DC Bias Current = 0 A
*   Small Signal Operation
*----------------------------------------------------------------------
.SUBCKT LQW15AN22NJ8Z port1 port2
C1 port1 port2 2.96e-14
L2 port1 1 2.34e-8
R2 1 port2 1.68e-1
R3 port1 port2 1.42e+4
L4 port1 2 2.80e-7
R4 2 port2 61.8
L5 port1 3 8.18e-7
R5 3 port2 1.62e+3
L6 port1 4 2.28e-6
C6 4 5 9.54e-17
R6 5 port2 7.03e+3
.ENDS LQW15AN22NJ8Z
*----------------------------------------------------------------------
*----------------------------------------------------------------------
* SPICE Model generated by Murata Manufacturing Co., Ltd.
* Copyright(C) Murata Manufacturing Co., Ltd.
* MURATA P/N : LQW15AN23NG8Z
* Property : L = 23[nH]
*----------------------------------------------------------------------
* Applicable Conditions:
*   Frequency Range = 1MHz - 20GHz
*   Temperature = 25 degC
*   DC Bias Current = 0 A
*   Small Signal Operation
*----------------------------------------------------------------------
.SUBCKT LQW15AN23NG8Z port1 port2
C1 port1 port2 3.32e-14
L2 port1 1 2.45e-8
R2 1 port2 1.67e-1
R3 port1 port2 1.42e+4
L4 port1 2 2.80e-7
R4 2 port2 61.8
L5 port1 3 8.57e-7
R5 3 port2 1.62e+3
L6 port1 4 2.28e-6
C6 4 5 1.12e-16
R6 5 port2 7.03e+3
.ENDS LQW15AN23NG8Z
*----------------------------------------------------------------------
*----------------------------------------------------------------------
* SPICE Model generated by Murata Manufacturing Co., Ltd.
* Copyright(C) Murata Manufacturing Co., Ltd.
* MURATA P/N : LQW15AN23NJ8Z
* Property : L = 23[nH]
*----------------------------------------------------------------------
* Applicable Conditions:
*   Frequency Range = 1MHz - 20GHz
*   Temperature = 25 degC
*   DC Bias Current = 0 A
*   Small Signal Operation
*----------------------------------------------------------------------
.SUBCKT LQW15AN23NJ8Z port1 port2
C1 port1 port2 3.32e-14
L2 port1 1 2.45e-8
R2 1 port2 1.67e-1
R3 port1 port2 1.42e+4
L4 port1 2 2.80e-7
R4 2 port2 61.8
L5 port1 3 8.57e-7