*----------------------------------------------------------------------
* SPICE Model generated by Murata Manufacturing Co., Ltd.
* Copyright(C) Murata Manufacturing Co., Ltd.
* MURATA P/N : LQW15CA1R0K00
* Property : L = 1000[nH]
*----------------------------------------------------------------------
* Applicable Conditions:
*   Frequency Range = 1MHz - 20GHz
*   Temperature = 25 degC
*   DC Bias Current = 0 A
*   Small Signal Operation
*----------------------------------------------------------------------
.SUBCKT LQW15CA1R0K00 port1 port2
C1 port1 port2 5.33e-14
L2 port1 1 1.06e-6
R2 1 port2 1.83
R3 port1 port2 7.84e+3
L4 port1 2 1.19e-5
R4 2 port2 762
L5 port1 3 1.24e-5
R5 3 port2 5.37e+3
L6 port1 4 1.94e-6
C6 4 5 3.88e-15
R6 5 port2 6.79e+3
.ENDS LQW15CA1R0K00
*----------------------------------------------------------------------
*----------------------------------------------------------------------
* SPICE Model generated by Murata Manufacturing Co., Ltd.
* Copyright(C) Murata Manufacturing Co., Ltd.
* MURATA P/N : LQW15CA22NJ00
* Property : L = 22[nH]
*----------------------------------------------------------------------
* Applicable Conditions:
*   Frequency Range = 1MHz - 20GHz
*   Temperature = 25 degC
*   DC Bias Current = 0 A
*   Small Signal Operation
*----------------------------------------------------------------------
.SUBCKT LQW15CA22NJ00 port1 port2
C1 port1 port2 3.58e-16
L2 port1 1 2.32e-8
R2 1 port2 4.50e-2
R3 port1 port2 229
L4 port1 2 2.69e-7
R4 2 port2 21.8
L5 port1 3 2.64e-7
R5 3 port2 145
.ENDS LQW15CA22NJ00
*----------------------------------------------------------------------
*----------------------------------------------------------------------
* SPICE Model generated by Murata Manufacturing Co., Ltd.
* Copyright(C) Murata Manufacturing Co., Ltd.
* MURATA P/N : LQW15CA22NK00
* Property : L = 22[nH]
*----------------------------------------------------------------------
* Applicable Conditions:
*   Frequency Range = 1MHz - 20GHz
*   Temperature = 25 degC
*   DC Bias Current = 0 A
*   Small Signal Operation
*----------------------------------------------------------------------
.SUBCKT LQW15CA22NK00 port1 port2
C1 port1 port2 3.58e-16
L2 port1 1 2.32e-8
R2 1 port2 4.50e-2
R3 port1 port2 229
L4 port1 2 2.69e-7
R4 2 port2 21.8
L5 port1 3 2.64e-7
R5 3 port2 145
.ENDS LQW15CA22NK00
*----------------------------------------------------------------------
*----------------------------------------------------------------------
* SPICE Model generated by Murata Manufacturing Co., Ltd.
* Copyright(C) Murata Manufacturing Co., Ltd.
* MURATA P/N : LQW15CA2R0K00
* Property : L = 2000[nH]
*----------------------------------------------------------------------
* Applicable Conditions:
*   Frequency Range = 1MHz - 20GHz
*   Temperature = 25 degC
*   DC Bias Current = 0 A
*   Small Signal Operation
*----------------------------------------------------------------------
.SUBCKT LQW15CA2R0K00 port1 port2
C1 port1 port2 4.14e-13
L2 port1 1 2.27e-6
R2 1 port2 2.66
R3 port1 port2 1.21e+4
L4 port1 2 2.79e-5
R4 2 port2 1.21e+3
L5 port1 3 4.02e-5
R5 3 port2 9.33e+3
L6 port1 4 4.55e-7
C6 4 5 9.31e-14
R6 5 port2 895
L7 port1 6 1.22e-6
C7 6 7 1.11e-14
R7 7 port2 1.83e+3
.ENDS LQW15CA2R0K00
*----------------------------------------------------------------------
*----------------------------------------------------------------------
* SPICE Model generated by Murata Manufacturing Co., Ltd.
* Copyright(C) Murata Manufacturing Co., Ltd.
* MURATA P/N : LQW15CA39NJ00
* Property : L = 39[nH]
*----------------------------------------------------------------------
* Applicable Conditions:
*   Frequency Range = 1MHz - 20GHz
*   Temperature = 25 degC
*   DC Bias Current = 0 A
*   Small Signal Operation
*----------------------------------------------------------------------
.SUBCKT LQW15CA39NJ00 port1 port2
C1 port1 port2 2.84e-16
L2 port1 1 4.13e-8
R2 1 port2 6.00e-2
R3 port1 port2 363
L4 port1 2 6.89e-7
R4 2 port2 59.9
L5 port1 3 1.54e-6
R5 3 port2 78.9
L6 port1 4 5.81e-7
R6 4 port2 227
.ENDS LQW15CA39NJ00
*----------------------------------------------------------------------
*----------------------------------------------------------------------
* SPICE Model generated by Murata Manufacturing Co., Ltd.
* Copyright(C) Murata Manufacturing Co., Ltd.
* MURATA P/N : LQW15CA39NK00
* Property : L = 39[nH]
*----------------------------------------------------------------------
* Applicable Conditions:
*   Frequency Range = 1MHz - 20GHz
*   Temperature = 25 degC
*   DC Bias Current = 0 A
*   Small Signal Operation
*----------------------------------------------------------------------
.SUBCKT LQW15CA39NK00 port1 port2
C1 port1 port2 2.84e-16
L2 port1 1 4.13e-8
R2 1 port2 6.00e-2
R3 port1 port2 363
L4 port1 2 6.89e-7
R4 2 port2 59.9
L5 port1 3 1.54e-6
R5 3 port2 78.9
L6 port1 4 5.81e-7
R6 4 port2 227
.ENDS LQW15CA39NK00
*----------------------------------------------------------------------
*----------------------------------------------------------------------
* SPICE Model generated by Murata Manufacturing Co., Ltd.
* Copyright(C) Murata Manufacturing Co., Ltd.
* MURATA P/N : LQW15CA59NJ00
* Property : L = 59[nH]
*----------------------------------------------------------------------
* Applicable Conditions:
*   Frequency Range = 1MHz - 20GHz
*   Temperature = 25 degC
*   DC Bias Current = 0 A
*   Small Signal Operation
*----------------------------------------------------------------------
.SUBCKT LQW15CA59NJ00 port1 port2
C1 port1 port2 4.82e-14
L2 port1 1 6.55e-8
R2 1 port2 7.50e-2
R3 port1 port2 575
L4 port1 2 9.35e-7
R4 2 port2 45.6
L5 port1 3 1.16e-6
R5 3 port2 153
L6 port1 4 1.09e-6
R6 4 port2 528
.ENDS LQW15CA59NJ00
*----------------------------------------------------------------------
*----------------------------------------------------------------------
* SPICE Model generated by Murata Manufacturing Co., Ltd.
* Copyright(C) Murata Manufacturing Co., Ltd.
* MURATA P/N : LQW15CA59NK00
* Property : L = 59[nH]
*----------------------------------------------------------------------
* Applicable Conditions:
*   Frequency Range = 1MHz - 20GHz
*   Temperature = 25 degC
*   DC Bias Current = 0 A
*   Small Signal Operation
*----------------------------------------------------------------------
.SUBCKT LQW15CA59NK00 port1 port2
C1 port1 port2 4.82e-14
L2 port1 1 6.55e-8
R2 1 port2 7.50e-2
R3 port1 port2 575
L4 port1 2 9.35e-7
R4 2 port2 45.6
L5 port1 3 1.16e-6
R5 3 port2 153
L6 port1 4 1.09e-6
R6 4 port2 528
.ENDS LQW15CA59NK00
*----------------------------------------------------------------------
*----------------------------------------------------------------------
* SPICE Model generated by Murata Manufacturing Co., Ltd.
* Copyright(C) Murata Manufacturing Co., Ltd.
* MURATA P/N : LQW15CA83NJ00
* Property : L = 83[nH]
*----------------------------------------------------------------------
* Applicable Conditions:
*   Frequency Range = 1MHz - 20GHz
*   Temperature = 25 degC
*   DC Bias Current = 0 A
*   Small Signal Operation
*----------------------------------------------------------------------
.SUBCKT LQW15CA83NJ00 port1 port2
C1 port1 port2 5.41e-14
L2 port1 1 9.25e-8
R2 1 port2 9.00e-2
R3 port1 port2 776
L4 port1 2 1.26e-6
R4 2 port2 48.9
L5 port1 3 1.80e-6
R5 3 port2 221
L6 port1 4 1.31e-6
R6 4 port2 528
.ENDS LQW15CA83NJ00
*----------------------------------------------------------------------
*----------------------------------------------------------------------
* SPICE Model generated by Murata Manufacturing Co., Ltd.
* Copyright(C) Murata Manufacturing Co., Ltd.
* MURATA P/N : LQW15CA83NK00
* Property : L = 83[nH]
*----------------------------------------------------------------------
* Applicable Conditions:
*   Frequency Range = 1MHz - 20GHz
*   Temperature = 25 degC
*   DC Bias Current = 0 A
*   Small Signal Operation
*----------------------------------------------------------------------
.SUBCKT LQW15CA83NK00 port1 port2
C1 port1 port2 5.41e-14
L2 port1 1 9.25e-8
R2 1 port2 9.00e-2
R3 port1 port2 776
L4 port1 2 1.26e-6
R4 2 port2 48.9
L5 port1 3 1.80e-6
R5 3 port2 221
L6 port1 4 1.31e-6
R6 4 port2 528
.ENDS LQW15CA83NK00
*----------------------------------------------------------------------
*----------------------------------------------------------------------
* SPICE Model generated by Murata Manufacturing Co., Ltd.
* Copyright(C) Murata Manufacturing Co., Ltd.
* MURATA P/N : LQW15CAR11J00
* Property : L = 110[nH]
*----------------------------------------------------------------------
* Applicable Conditions:
*   Frequency Range = 1MHz - 20GHz
*   Temperature = 25 degC
*   DC Bias Current = 0 A
*   Small Signal Operation
*----------------------------------------------------------------------
.SUBCKT LQW15CAR11J00 port1 port2
C1 port1 port2 5.17e-14
L2 port1 1 1.19e-7
R2 1 port2 1.05e-1
R3 port1 port2 1.07e+3
L4 port1 2 1.37e-6
R4 2 port2 103
L5 port1 3 4.88e-6
R5 3 port2 738
L6 port1 4 1.53e-6
R6 4 port2 783
.ENDS LQW15CAR11J00
*----------------------------------------------------------------------
*----------------------------------------------------------------------
* SPICE Model generated by Murata Manufacturing Co., Ltd.
* Copyright(C) Murata Manufacturing Co., Ltd.
* MURATA P/N : LQW15CAR11K00
* Property : L = 110[nH]
*----------------------------------------------------------------------
* Applicable Conditions:
*   Frequency Range = 1MHz - 20GHz
*   Temperature = 25 degC
*   DC Bias Current = 0 A
*   Small Signal Operation
*----------------------------------------------------------------------
.SUBCKT LQW15CAR11K00 port1 port2
C1 port1 port2 5.17e-14
L2 port1 1 1.19e-7
R2 1 port2 1.05e-1
R3 port1 port2 1.07e+3
L4 port1 2 1.37e-6
R4 2 port2 103
L5 port1 3 4.88e-6
R5 3 port2 738
L6 port1 4 1.53e-6
R6 4 port2 783
.ENDS LQW15CAR11K00
*----------------------------------------------------------------------
*----------------------------------------------------------------------
* SPICE Model generated by Murata Manufacturing Co., Ltd.
* Copyright(C) Murata Manufacturing Co., Ltd.
* MURATA P/N : LQW15CAR14J00
* Property : L = 140[nH]
*----------------------------------------------------------------------
* Applicable Conditions:
*   Frequency Range = 1MHz - 20GHz
*   Temperature = 25 degC
*   DC Bias Current = 0 A
*   Small Signal Operation
*----------------------------------------------------------------------
.SUBCKT LQW15CAR14J00 port1 port2
C1 port1 port2 5.80e-14
L2 port1 1 1.50e-7
R2 1 port2 1.45e-1
R3 port1 port2 1.26e+3
L4 port1 2 1.69e-6
R4 2 port2 116
L5 port1 3 3.79e-6
R5 3 port2 2.39e+3
L6 port1 4 2.85e-6
R6 4 port2 698
.ENDS LQW15CAR14J00
*----------------------------------------------------------------------
*----------------------------------------------------------------------
* SPICE Model generated by Murata Manufacturing Co., Ltd.
* Copyright(C) Murata Manufacturing Co., Ltd.
* MURATA P/N : LQW15CAR14K00
* Property : L = 140[nH]
*----------------------------------------------------------------------
* Applicable Conditions:
*   Frequency Range = 1MHz - 20GHz
*   Temperature = 25 degC
*   DC Bias Current = 0 A
*   Small Signal Operation
*----------------------------------------------------------------------
.SUBCKT LQW15CAR14K00 port1 port2
C1 port1 port2 5.80e-14
L2 port1 1 1.50e-7
R2 1 port2 1.45e-1
R3 port1 port2 1.26e+3
L4 port1 2 1.69e-6
R4 2 port2 116
L5 port1 3 3.79e-6
R5 3 port2 2.39e+3
L6 port1 4 2.85e-6
R6 4 port2 698
.ENDS LQW15CAR14K00
*----------------------------------------------------------------------
*----------------------------------------------------------------------
* SPICE Model generated by Murata Manufacturing Co., Ltd.
* Copyright(C) Murata Manufacturing Co., Ltd.
* MURATA P/N : LQW15CAR18J00
* Property : L = 180[nH]
*----------------------------------------------------------------------
* Applicable Conditions:
*   Frequency Range = 1MHz - 20GHz
*   Temperature = 25 degC
*   DC Bias Current = 0 A
*   Small Signal Operation
*----------------------------------------------------------------------
.SUBCKT LQW15CAR18J00 port1 port2
C1 port1 port2 5.17e-14
L2 port1 1 1.93e-7
R2 1 port2 1.65e-1
R3 port1 port2 1.66e+3
L4 port1 2 2.23e-6
R4 2 port2 146
L5 port1 3 2.23e-5
R5 3 port2 2.45e+3
L6 port1 4 2.26e-6
R6 4 port2 879
.ENDS LQW15CAR18J00
*----------------------------------------------------------------------
*----------------------------------------------------------------------
* SPICE Model generated by Murata Manufacturing Co., Ltd.
* Copyright(C) Murata Manufacturing Co., Ltd.
* MURATA P/N : LQW15CAR18K00
* Property : L = 180[nH]
*----------------------------------------------------------------------
* Applicable Conditions:
*   Frequency Range = 1MHz - 20GHz
*   Temperature = 25 degC
*   DC Bias Current = 0 A
*   Small Signal Operation
*----------------------------------------------------------------------
.SUBCKT LQW15CAR18K00 port1 port2
C1 port1 port2 5.17e-14
L2 port1 1 1.93e-7
R2 1 port2 1.65e-1
R3 port1 port2 1.66e+3
L4 port1 2 2.23e-6
R4 2 port2 146
L5 port1 3 2.23e-5
R5 3 port2 2.45e+3
L6 port1 4 2.26e-6
R6 4 port2 879
.ENDS LQW15CAR18K00
*----------------------------------------------------------------------
*----------------------------------------------------------------------
* SPICE Model generated by Murata Manufacturing Co., Ltd.
* Copyright(C) Murata Manufacturing Co., Ltd.
* MURATA P/N : LQW15CAR22J00
* Property : L = 220[nH]
*----------------------------------------------------------------------
* Applicable Conditions:
*   Frequency Range = 1MHz - 20GHz
*   Temperature = 25 degC
*   DC Bias Current = 0 A
*   Small Signal Operation
*----------------------------------------------------------------------
.SUBCKT LQW15CAR22J00 port1 port2
C1 port1 port2 5.29e-14
L2 port1 1 2.43e-7
R2 1 port2 2.30e-1
R3 port1 port2 2.14e+3
L4 port1 2 3.93e-6
R4 2 port2 205
L5 port1 3 5.91e-6
R5 3 port2 605
L6 port1 4 2.88e-6
R6 4 port2 1.37e+3
.ENDS LQW15CAR22J00
*----------------------------------------------------------------------
*----------------------------------------------------------------------
* SPICE Model generated by Murata Manufacturing Co., Ltd.
* Copyright(C) Murata Manufacturing Co., Ltd.
* MURATA P/N : LQW15CAR22K00
* Property : L = 220[nH]
*----------------------------------------------------------------------
* Applicable Conditions:
*   Frequency Range = 1MHz - 20GHz
*   Temperature = 25 degC
*   DC Bias Current = 0 A
*   Small Signal Operation
*----------------------------------------------------------------------
.SUBCKT LQW15CAR22K00 port1 port2
C1 port1 port2 5.29e-14
L2 port1 1 2.43e-7
R2 1 port2 2.30e-1
R3 port1 port2 2.14e+3
L4 port1 2 3.93e-6
R4 2 port2 205
L5 port1 3 5.91e-6
R5 3 port2 605
L6 port1 4 2.88e-6
R6 4 port2 1.37e+3
.ENDS LQW15CAR22K00
*----------------------------------------------------------------------
*----------------------------------------------------------------------
* SPICE Model generated by Murata Manufacturing Co., Ltd.
* Copyright(C) Murata Manufacturing Co., Ltd.
* MURATA P/N : LQW15CAR27J00
* Property : L = 270[nH]
*----------------------------------------------------------------------
* Applicable Conditions:
*   Frequency Range = 1MHz - 20GHz
*   Temperature = 25 degC
*   DC Bias Current = 0 A
*   Small Signal Operation
*----------------------------------------------------------------------
.SUBCKT LQW15CAR27J00 port1 port2
C1 port1 port2 5.17e-14
L2 port1 1 2.92e-7
R2 1 port2 3.00e-1
R3 port1 port2 2.51e+3
L4 port1 2 5.30e-6
R4 2 port2 205
L5 port1 3 6.79e-6
R5 3 port2 605
L6 port1 4 3.31e-6
R6 4 port2 1.37e+3
.ENDS LQW15CAR27J00
*----------------------------------------------------------------------
*----------------------------------------------------------------------
* SPICE Model generated by Murata Manufacturing Co., Ltd.
* Copyright(C) Murata Manufacturing Co., Ltd.
* MURATA P/N : LQW15CAR27K00
* Property : L = 270[nH]
*----------------------------------------------------------------------
* Applicable Conditions:
*   Frequency Range = 1MHz - 20GHz
*   Temperature = 25 degC
*   DC Bias Current = 0 A
*   Small Signal Operation
*----------------------------------------------------------------------
.SUBCKT LQW15CAR27K00 port1 port2
C1 port1 port2 5.17e-14
L2 port1 1 2.92e-7
R2 1 port2 3.00e-1
R3 port1 port2 2.51e+3
L4 port1 2 5.30e-6
R4 2 port2 205
L5 port1 3 6.79e-6
R5 3 port2 605
L6 port1 4 3.31e-6
R6 4 port2 1.37e+3
.ENDS LQW15CAR27K00
*----------------------------------------------------------------------
*----------------------------------------------------------------------
* SPICE Model generated by Murata Manufacturing Co., Ltd.
* Copyright(C) Murata Manufacturing Co., Ltd.
* MURATA P/N : LQW15CAR32J00
* Property : L = 320[nH]
*----------------------------------------------------------------------
* Applicable Conditions:
*   Frequency Range = 1MHz - 20GHz
*   Temperature = 25 degC
*   DC Bias Current = 0 A
*   Small Signal Operation
*----------------------------------------------------------------------
.SUBCKT LQW15CAR32J00 port1 port2
C1 port1 port2 4.82e-14
L2 port1 1 3.51e-7
R2 1 port2 3.20e-1
R3 port1 port2 2.82e+3
L4 port1 2 6.09e-6
R4 2 port2 225
L5 port1 3 8.35e-6
R5 3 port2 605
L6 port1 4 3.71e-6
R6 4 port2 1.43e+3
.ENDS LQW15CAR32J00
*----------------------------------------------------------------------
*----------------------------------------------------------------------
* SPICE Model generated by Murata Manufacturing Co., Ltd.
* Copyright(C) Murata Manufacturing Co., Ltd.
* MURATA P/N : LQW15CAR32K00
* Property : L = 320[nH]
*----------------------------------------------------------------------
* Applicable Conditions:
*   Frequency Range = 1MHz - 20GHz
*   Temperature = 25 degC
*   DC Bias Current = 0 A
*   Small Signal Operation
*----------------------------------------------------------------------
.SUBCKT LQW15CAR32K00 port1 port2
C1 port1 port2 4.82e-14
L2 port1 1 3.51e-7
R2 1 port2 3.20e-1
R3 port1 port2 2.82e+3
L4 port1 2 6.09e-6
R4 2 port2 225
L5 port1 3 8.35e-6
R5 3 port2 605
L6 port1 4 3.71e-6
R6 4 port2 1.43e+3
.ENDS LQW15CAR32K00
*----------------------------------------------------------------------
*----------------------------------------------------------------------
* SPICE Model generated by Murata Manufacturing Co., Ltd.
* Copyright(C) Murata Manufacturing Co., Ltd.
* MURATA P/N : LQW15CAR37J00
* Property : L = 370[nH]
*----------------------------------------------------------------------
* Applicable Conditions:
*   Frequency Range = 1MHz - 20GHz
*   Temperature = 25 degC
*   DC Bias Current = 0 A
*   Small Signal Operation
*----------------------------------------------------------------------
.SUBCKT LQW15CAR37J00 port1 port2
C1 port1 port2 4.93e-14
L2 port1 1 4.12e-7
R2 1 port2 4.39e-1
R3 port1 port2 3.31e+3
L4 port1 2 7.67e-6
R4 2 port2 297
L5 port1 3 1.05e-5
R5 3 port2 373
L6 port1 4 4.26e-6
R6 4 port2 1.43e+3
.ENDS LQW15CAR37J00
*----------------------------------------------------------------------
*----------------------------------------------------------------------
* SPICE Model generated by Murata Manufacturing Co., Ltd.
* Copyright(C) Murata Manufacturing Co., Ltd.
* MURATA P/N : LQW15CAR37K00
* Property : L = 370[nH]
*----------------------------------------------------------------------
* Applicable Conditions:
*   Frequency Range = 1MHz - 20GHz
*   Temperature = 25 degC
*   DC Bias Current = 0 A
*   Small Signal Operation
*----------------------------------------------------------------------
.SUBCKT LQW15CAR37K00 port1 port2
C1 port1 port2 4.93e-14
L2 port1 1 4.12e-7
R2 1 port2 4.39e-1
R3 port1 port2 3.31e+3
L4 port1 2 7.67e-6
R4 2 port2 297
L5 port1 3 1.05e-5
R5 3 port2 373
L6 port1 4 4.26e-6
R6 4 port2 1.43e+3
.ENDS LQW15CAR37K00
*----------------------------------------------------------------------
*----------------------------------------------------------------------
* SPICE Model generated by Murata Manufacturing Co., Ltd.
* Copyright(C) Murata Manufacturing Co., Ltd.
* MURATA P/N : LQW15CAR43J00
* Property : L = 430[nH]
*----------------------------------------------------------------------
* Applicable Conditions:
*   Frequency Range = 1MHz - 20GHz
*   Temperature = 25 degC
*   DC Bias Current = 0 A
*   Small Signal Operation
*----------------------------------------------------------------------
.SUBCKT LQW15CAR43J00 port1 port2
C1 port1 port2 4.93e-14
L2 port1 1 4.73e-7
R2 1 port2 5.65e-1
R3 port1 port2 3.98e+3
L4 port1 2 9.08e-6
R4 2 port2 704
L5 port1 3 1.25e-5
R5 3 port2 585
L6 port1 4 5.75e-6
R6 4 port2 2.61e+3
.ENDS LQW15CAR43J00
*----------------------------------------------------------------------
*----------------------------------------------------------------------
* SPICE Model generated by Murata Manufacturing Co., Ltd.
* Copyright(C) Murata Manufacturing Co., Ltd.
* MURATA P/N : LQW15CAR43K00
* Property : L = 430[nH]
*----------------------------------------------------------------------
* Applicable Conditions:
*   Frequency Range = 1MHz - 20GHz
*   Temperature = 25 degC
*   DC Bias Current = 0 A
*   Small Signal Operation
*----------------------------------------------------------------------
.SUBCKT LQW15CAR43K00 port1 port2
C1 port1 port2 4.93e-14
L2 port1 1 4.73e-7
R2 1 port2 5.65e-1
R3 port1 port2 3.98e+3
L4 port1 2 9.08e-6
R4 2 port2 704
L5 port1 3 1.25e-5
R5 3 port2 585
L6 port1 4 5.75e-6
R6 4 port2 2.61e+3
.ENDS LQW15CAR43K00
*----------------------------------------------------------------------
*----------------------------------------------------------------------
* SPICE Model generated by Murata Manufacturing Co., Ltd.
* Copyright(C) Murata Manufacturing Co., Ltd.
* MURATA P/N : LQW15CAR50J00
* Property : L = 500[nH]
*----------------------------------------------------------------------
* Applicable Conditions:
*   Frequency Range = 1MHz - 20GHz
*   Temperature = 25 degC
*   DC Bias Current = 0 A
*   Small Signal Operation
*----------------------------------------------------------------------
.SUBCKT LQW15CAR50J00 port1 port2
C1 port1 port2 4.93e-14
L2 port1 1 5.69e-7
R2 1 port2 8.80e-1
R3 port1 port2 5.13e+3
L4 port1 2 9.96e-6
R4 2 port2 704
L5 port1 3 1.22e-5
R5 3 port2 559
L6 port1 4 6.45e-6
R6 4 port2 3.07e+3
.ENDS LQW15CAR50J00
*----------------------------------------------------------------------
*----------------------------------------------------------------------
* SPICE Model generated by Murata Manufacturing Co., Ltd.
* Copyright(C) Murata Manufacturing Co., Ltd.
* MURATA P/N : LQW15CAR50K00
* Property : L = 500[nH]
*----------------------------------------------------------------------
* Applicable Conditions:
*   Frequency Range = 1MHz - 20GHz
*   Temperature = 25 degC
*   DC Bias Current = 0 A
*   Small Signal Operation
*----------------------------------------------------------------------
.SUBCKT LQW15CAR50K00 port1 port2
C1 port1 port2 4.93e-14
L2 port1 1 5.69e-7
R2 1 port2 8.80e-1
R3 port1 port2 5.13e+3
L4 port1 2 9.96e-6
R4 2 port2 704
L5 port1 3 1.22e-5
R5 3 port2 559
L6 port1 4 6.45e-6
R6 4 port2 3.07e+3
.ENDS LQW15CAR50K00
*----------------------------------------------------------------------
*----------------------------------------------------------------------
* SPICE Model generated by Murata Manufacturing Co., Ltd.
* Copyright(C) Murata Manufacturing Co., Ltd.
* MURATA P/N : LQW15CAR56J00
* Property : L = 560[nH]
*----------------------------------------------------------------------
* Applicable Conditions:
*   Frequency Range = 1MHz - 20GHz
*   Temperature = 25 degC
*   DC Bias Current = 0 A
*   Small Signal Operation
*----------------------------------------------------------------------
.SUBCKT LQW15CAR56J00 port1 port2
C1 port1 port2 4.39e-14
L2 port1 1 6.24e-7
R2 1 port2 9.09e-1
R3 port1 port2 5.01e+3
L4 port1 2 1.02e-5
R4 2 port2 672
L5 port1 3 1.68e-5
R5 3 port2 599
L6 port1 4 7.07e-6
R6 4 port2 3.00e+3
.ENDS LQW15CAR56J00
*----------------------------------------------------------------------
*----------------------------------------------------------------------
* SPICE Model generated by Murata Manufacturing Co., Ltd.
* Copyright(C) Murata Manufacturing Co., Ltd.
* MURATA P/N : LQW15CAR56K00
* Property : L = 560[nH]
*----------------------------------------------------------------------
* Applicable Conditions:
*   Frequency Range = 1MHz - 20GHz
*   Temperature = 25 degC
*   DC Bias Current = 0 A
*   Small Signal Operation
*----------------------------------------------------------------------
.SUBCKT LQW15CAR56K00 port1 port2
C1 port1 port2 4.39e-14
L2 port1 1 6.24e-7
R2 1 port2 9.09e-1
R3 port1 port2 5.01e+3
L4 port1 2 1.02e-5
R4 2 port2 672
L5 port1 3 1.68e-5
R5 3 port2 599
L6 port1 4 7.07e-6
R6 4 port2 3.00e+3
.ENDS LQW15CAR56K00
*----------------------------------------------------------------------
*----------------------------------------------------------------------
* SPICE Model generated by Murata Manufacturing Co., Ltd.
* Copyright(C) Murata Manufacturing Co., Ltd.
* MURATA P/N : LQW15CAR64J00
* Property : L = 640[nH]
*----------------------------------------------------------------------
* Applicable Conditions:
*   Frequency Range = 1MHz - 20GHz
*   Temperature = 25 degC
*   DC Bias Current = 0 A
*   Small Signal Operation
*----------------------------------------------------------------------
.SUBCKT LQW15CAR64J00 port1 port2
C1 port1 port2 4.60e-14
L2 port1 1 7.16e-7
R2 1 port2 1.15
R3 port1 port2 6.02e+3
L4 port1 2 1.09e-5
R4 2 port2 827
L5 port1 3 1.37e-5
R5 3 port2 293
L6 port1 4 9.32e-6
R6 4 port2 4.44e+3
.ENDS LQW15CAR64J00
*----------------------------------------------------------------------
*----------------------------------------------------------------------
* SPICE Model generated by Murata Manufacturing Co., Ltd.
* Copyright(C) Murata Manufacturing Co., Ltd.
* MURATA P/N : LQW15CAR64K00
* Property : L = 640[nH]
*----------------------------------------------------------------------
* Applicable Conditions:
*   Frequency Range = 1MHz - 20GHz
*   Temperature = 25 degC
*   DC Bias Current = 0 A
*   Small Signal Operation
*----------------------------------------------------------------------
.SUBCKT LQW15CAR64K00 port1 port2
C1 port1 port2 4.60e-14
L2 port1 1 7.16e-7
R2 1 port2 1.15
R3 port1 port2 6.02e+3
L4 port1 2 1.09e-5
R4 2 port2 827
L5 port1 3 1.37e-5
R5 3 port2 293
L6 port1 4 9.32e-6
R6 4 port2 4.44e+3
.ENDS LQW15CAR64K00
*----------------------------------------------------------------------
*----------------------------------------------------------------------
* SPICE Model generated by Murata Manufacturing Co., Ltd.
* Copyright(C) Murata Manufacturing Co., Ltd.
* MURATA P/N : LQW15CAR73J00
* Property : L = 730[nH]
*----------------------------------------------------------------------
* Applicable Conditions:
*   Frequency Range = 1MHz - 20GHz
*   Temperature = 25 degC
*   DC Bias Current = 0 A
*   Small Signal Operation
*----------------------------------------------------------------------
.SUBCKT LQW15CAR73J00 port1 port2
C1 port1 port2 4.60e-14
L2 port1 1 8.22e-7
R2 1 port2 1.60
R3 port1 port2 6.60e+3
L4 port1 2 1.31e-5
R4 2 port2 827
L5 port1 3 1.57e-5
R5 3 port2 280
L6 port1 4 1.07e-5
R6 4 port2 4.65e+3
.ENDS LQW15CAR73J00
*----------------------------------------------------------------------
*----------------------------------------------------------------------
* SPICE Model generated by Murata Manufacturing Co., Ltd.
* Copyright(C) Murata Manufacturing Co., Ltd.
* MURATA P/N : LQW15CAR73K00
* Property : L = 730[nH]
*----------------------------------------------------------------------
* Applicable Conditions:
*   Frequency Range = 1MHz - 20GHz
*   Temperature = 25 degC
*   DC Bias Current = 0 A
*   Small Signal Operation
*----------------------------------------------------------------------
.SUBCKT LQW15CAR73K00 port1 port2
C1 port1 port2 4.60e-14
L2 port1 1 8.22e-7
R2 1 port2 1.60
R3 port1 port2 6.60e+3
L4 port1 2 1.31e-5
R4 2 port2 827
L5 port1 3 1.57e-5
R5 3 port2 280
L6 port1 4 1.07e-5
R6 4 port2 4.65e+3
.ENDS LQW15CAR73K00
*----------------------------------------------------------------------
*----------------------------------------------------------------------
* SPICE Model generated by Murata Manufacturing Co., Ltd.
* Copyright(C) Murata Manufacturing Co., Ltd.
* MURATA P/N : LQW15CAR80J00
* Property : L = 800[nH]
*----------------------------------------------------------------------
* Applicable Conditions:
*   Frequency Range = 1MHz - 20GHz
*   Temperature = 25 degC
*   DC Bias Current = 0 A
*   Small Signal Operation
*----------------------------------------------------------------------
.SUBCKT LQW15CAR80J00 port1 port2
C1 port1 port2 4.60e-14
L2 port1 1 9.22e-7
R2 1 port2 1.65
R3 port1 port2 7.41e+3
L4 port1 2 1.37e-5
R4 2 port2 827
L5 port1 3 1.43e-5
R5 3 port2 287
L6 port1 4 1.26e-5
R6 4 port2 5.22e+3
.ENDS LQW15CAR80J00
*----------------------------------------------------------------------
*----------------------------------------------------------------------
* SPICE Model generated by Murata Manufacturing Co., Ltd.
* Copyright(C) Murata Manufacturing Co., Ltd.
* MURATA P/N : LQW15CAR80K00
* Property : L = 800[nH]
*----------------------------------------------------------------------
* Applicable Conditions:
*   Frequency Range = 1MHz - 20GHz
*   Temperature = 25 degC
*   DC Bias Current = 0 A
*   Small Signal Operation
*----------------------------------------------------------------------
.SUBCKT LQW15CAR80K00 port1 port2
C1 port1 port2 4.60e-14
L2 port1 1 9.22e-7
R2 1 port2 1.65
R3 port1 port2 7.41e+3
L4 port1 2 1.37e-5
R4 2 port2 827
L5 port1 3 1.43e-5
R5 3 port2 287
L6 port1 4 1.26e-5
R6 4 port2 5.22e+3
.ENDS LQW15CAR80K00
*----------------------------------------------------------------------
