*----------------------------------------------------------------------
* SPICE Model generated by Murata Manufacturing Co., Ltd.
* Copyright(C) Murata Manufacturing Co., Ltd.
* MURATA P/N : LQW18AN10NG00
* Property : L = 10[nH]
*----------------------------------------------------------------------
* Applicable Conditions:
*   Frequency Range = 1MHz - 20GHz
*   Temperature = 25 degC
*   DC Bias Current = 0 A
*   Small Signal Operation
*----------------------------------------------------------------------
.SUBCKT LQW18AN10NG00 port1 port2
C1 port1 port2 2.75e-14
L2 port1 1 1.13e-8
R2 1 port2 7.40e-2
R3 port1 port2 1.82e+4
L4 port1 2 5.66e-8
R4 2 port2 3.77
L5 port1 3 2.28e-7
R5 3 port2 147
L6 port1 4 5.98e-7
R6 4 port2 4.00e+3
L7 port1 5 8.34e-9
C7 5 6 1.92e-14
R7 6 port2 10.5
.ENDS LQW18AN10NG00
*----------------------------------------------------------------------
*----------------------------------------------------------------------
* SPICE Model generated by Murata Manufacturing Co., Ltd.
* Copyright(C) Murata Manufacturing Co., Ltd.
* MURATA P/N : LQW18AN10NJ00
* Property : L = 10[nH]
*----------------------------------------------------------------------
* Applicable Conditions:
*   Frequency Range = 1MHz - 20GHz
*   Temperature = 25 degC
*   DC Bias Current = 0 A
*   Small Signal Operation
*----------------------------------------------------------------------
.SUBCKT LQW18AN10NJ00 port1 port2
C1 port1 port2 2.75e-14
L2 port1 1 1.13e-8
R2 1 port2 7.40e-2
R3 port1 port2 1.82e+4
L4 port1 2 5.66e-8
R4 2 port2 3.77
L5 port1 3 2.28e-7
R5 3 port2 147
L6 port1 4 5.98e-7
R6 4 port2 4.00e+3
L7 port1 5 8.34e-9
C7 5 6 1.92e-14
R7 6 port2 10.5
.ENDS LQW18AN10NJ00
*----------------------------------------------------------------------
*----------------------------------------------------------------------
* SPICE Model generated by Murata Manufacturing Co., Ltd.
* Copyright(C) Murata Manufacturing Co., Ltd.
* MURATA P/N : LQW18AN11NG00
* Property : L = 11[nH]
*----------------------------------------------------------------------
* Applicable Conditions:
*   Frequency Range = 1MHz - 20GHz
*   Temperature = 25 degC
*   DC Bias Current = 0 A
*   Small Signal Operation
*----------------------------------------------------------------------
.SUBCKT LQW18AN11NG00 port1 port2
C1 port1 port2 1.08e-14
L2 port1 1 1.34e-8
R2 1 port2 7.40e-2
R3 port1 port2 2.09e+4
L4 port1 2 5.49e-8
R4 2 port2 3.47
L5 port1 3 2.47e-7
R5 3 port2 160
L6 port1 4 6.69e-7
R6 4 port2 4.59e+3
L7 port1 5 4.78e-9
C7 5 6 2.24e-14
R7 6 port2 9.48
L8 port1 7 6.98e-9
C8 7 8 1.01e-14
R8 8 port2 9.70
.ENDS LQW18AN11NG00
*----------------------------------------------------------------------
*----------------------------------------------------------------------
* SPICE Model generated by Murata Manufacturing Co., Ltd.
* Copyright(C) Murata Manufacturing Co., Ltd.
* MURATA P/N : LQW18AN11NJ00
* Property : L = 11[nH]
*----------------------------------------------------------------------
* Applicable Conditions:
*   Frequency Range = 1MHz - 20GHz
*   Temperature = 25 degC
*   DC Bias Current = 0 A
*   Small Signal Operation
*----------------------------------------------------------------------
.SUBCKT LQW18AN11NJ00 port1 port2
C1 port1 port2 1.08e-14
L2 port1 1 1.34e-8
R2 1 port2 7.40e-2
R3 port1 port2 2.09e+4
L4 port1 2 5.49e-8
R4 2 port2 3.47
L5 port1 3 2.47e-7
R5 3 port2 160
L6 port1 4 6.69e-7
R6 4 port2 4.59e+3
L7 port1 5 4.78e-9
C7 5 6 2.24e-14
R7 6 port2 9.48
L8 port1 7 6.98e-9
C8 7 8 1.01e-14
R8 8 port2 9.70
.ENDS LQW18AN11NJ00
*----------------------------------------------------------------------
*----------------------------------------------------------------------
* SPICE Model generated by Murata Manufacturing Co., Ltd.
* Copyright(C) Murata Manufacturing Co., Ltd.
* MURATA P/N : LQW18AN12NG00
* Property : L = 12[nH]
*----------------------------------------------------------------------
* Applicable Conditions:
*   Frequency Range = 1MHz - 20GHz
*   Temperature = 25 degC
*   DC Bias Current = 0 A
*   Small Signal Operation
*----------------------------------------------------------------------
.SUBCKT LQW18AN12NG00 port1 port2
C1 port1 port2 1.09e-14
L2 port1 1 1.37e-8
R2 1 port2 9.00e-2
R3 port1 port2 1.77e+4
L4 port1 2 8.63e-8
R4 2 port2 4.77
L5 port1 3 2.74e-7
R5 3 port2 171
L6 port1 4 1.09e-6
R6 4 port2 4.34e+3
L7 port1 5 8.68e-7
C7 5 6 1.59e-16
R7 6 port2 7.38e+3
L8 port1 7 1.61e-8
C8 7 8 4.90e-15
R8 8 port2 19.9
.ENDS LQW18AN12NG00
*----------------------------------------------------------------------
*----------------------------------------------------------------------
* SPICE Model generated by Murata Manufacturing Co., Ltd.
* Copyright(C) Murata Manufacturing Co., Ltd.
* MURATA P/N : LQW18AN12NJ00
* Property : L = 12[nH]
*----------------------------------------------------------------------
* Applicable Conditions:
*   Frequency Range = 1MHz - 20GHz
*   Temperature = 25 degC
*   DC Bias Current = 0 A
*   Small Signal Operation
*----------------------------------------------------------------------
.SUBCKT LQW18AN12NJ00 port1 port2
C1 port1 port2 1.09e-14
L2 port1 1 1.37e-8
R2 1 port2 9.00e-2
R3 port1 port2 1.77e+4
L4 port1 2 8.63e-8
R4 2 port2 4.77
L5 port1 3 2.74e-7
R5 3 port2 171
L6 port1 4 1.09e-6
R6 4 port2 4.34e+3
L7 port1 5 8.68e-7
C7 5 6 1.59e-16
R7 6 port2 7.38e+3
L8 port1 7 1.61e-8
C8 7 8 4.90e-15
R8 8 port2 19.9
.ENDS LQW18AN12NJ00
*----------------------------------------------------------------------
*----------------------------------------------------------------------
* SPICE Model generated by Murata Manufacturing Co., Ltd.
* Copyright(C) Murata Manufacturing Co., Ltd.
* MURATA P/N : LQW18AN13NG00
* Property : L = 13[nH]
*----------------------------------------------------------------------
* Applicable Conditions:
*   Frequency Range = 1MHz - 20GHz
*   Temperature = 25 degC
*   DC Bias Current = 0 A
*   Small Signal Operation
*----------------------------------------------------------------------
.SUBCKT LQW18AN13NG00 port1 port2
C1 port1 port2 1.16e-14
L2 port1 1 1.49e-8
R2 1 port2 9.00e-2
R3 port1 port2 4.32e+4
L4 port1 2 8.44e-8
R4 2 port2 5.87
L5 port1 3 3.18e-7
R5 3 port2 191
L6 port1 4 7.97e-7
R6 4 port2 4.94e+3
L7 port1 5 4.07e-5
C7 5 6 4.51e-18
R7 6 port2 5.69e+4
L8 port1 7 7.10e-9
C8 7 8 1.14e-14
R8 8 port2 10.0
.ENDS LQW18AN13NG00
*----------------------------------------------------------------------
*----------------------------------------------------------------------
* SPICE Model generated by Murata Manufacturing Co., Ltd.
* Copyright(C) Murata Manufacturing Co., Ltd.
* MURATA P/N : LQW18AN13NJ00
* Property : L = 13[nH]
*----------------------------------------------------------------------
* Applicable Conditions:
*   Frequency Range = 1MHz - 20GHz
*   Temperature = 25 degC
*   DC Bias Current = 0 A
*   Small Signal Operation
*----------------------------------------------------------------------
.SUBCKT LQW18AN13NJ00 port1 port2
C1 port1 port2 1.16e-14
L2 port1 1 1.49e-8
R2 1 port2 9.00e-2
R3 port1 port2 4.32e+4
L4 port1 2 8.44e-8
R4 2 port2 5.87
L5 port1 3 3.18e-7
R5 3 port2 191
L6 port1 4 7.97e-7
R6 4 port2 4.94e+3
L7 port1 5 4.07e-5
C7 5 6 4.51e-18
R7 6 port2 5.69e+4
L8 port1 7 7.10e-9
C8 7 8 1.14e-14
R8 8 port2 10.0
.ENDS LQW18AN13NJ00
*----------------------------------------------------------------------
*----------------------------------------------------------------------
* SPICE Model generated by Murata Manufacturing Co., Ltd.
* Copyright(C) Murata Manufacturing Co., Ltd.
* MURATA P/N : LQW18AN15NG00
* Property : L = 15[nH]
*----------------------------------------------------------------------
* Applicable Conditions:
*   Frequency Range = 1MHz - 20GHz
*   Temperature = 25 degC
*   DC Bias Current = 0 A
*   Small Signal Operation
*----------------------------------------------------------------------
.SUBCKT LQW18AN15NG00 port1 port2
C1 port1 port2 2.45e-14
L2 port1 1 1.77e-8
R2 1 port2 9.00e-2
R3 port1 port2 3.16e+4
L4 port1 2 1.00e-7
R4 2 port2 6.34
L5 port1 3 4.23e-7
R5 3 port2 281
L6 port1 4 9.56e-7
R6 4 port2 6.13e+3
L7 port1 5 2.86e-8
C7 5 6 8.40e-15
R7 6 port2 46.5
L8 port1 7 6.41e-9
C8 7 8 1.17e-14
R8 8 port2 9.82
.ENDS LQW18AN15NG00
*----------------------------------------------------------------------
*----------------------------------------------------------------------
* SPICE Model generated by Murata Manufacturing Co., Ltd.
* Copyright(C) Murata Manufacturing Co., Ltd.
* MURATA P/N : LQW18AN15NJ00
* Property : L = 15[nH]
*----------------------------------------------------------------------
* Applicable Conditions:
*   Frequency Range = 1MHz - 20GHz
*   Temperature = 25 degC
*   DC Bias Current = 0 A
*   Small Signal Operation
*----------------------------------------------------------------------
.SUBCKT LQW18AN15NJ00 port1 port2
C1 port1 port2 2.45e-14
L2 port1 1 1.77e-8
R2 1 port2 9.00e-2
R3 port1 port2 3.16e+4
L4 port1 2 1.00e-7
R4 2 port2 6.34
L5 port1 3 4.23e-7
R5 3 port2 281
L6 port1 4 9.56e-7
R6 4 port2 6.13e+3
L7 port1 5 2.86e-8
C7 5 6 8.40e-15
R7 6 port2 46.5
L8 port1 7 6.41e-9
C8 7 8 1.17e-14
R8 8 port2 9.82
.ENDS LQW18AN15NJ00
*----------------------------------------------------------------------
*----------------------------------------------------------------------
* SPICE Model generated by Murata Manufacturing Co., Ltd.
* Copyright(C) Murata Manufacturing Co., Ltd.
* MURATA P/N : LQW18AN16NG00
* Property : L = 16[nH]
*----------------------------------------------------------------------
* Applicable Conditions:
*   Frequency Range = 1MHz - 20GHz
*   Temperature = 25 degC
*   DC Bias Current = 0 A
*   Small Signal Operation
*----------------------------------------------------------------------
.SUBCKT LQW18AN16NG00 port1 port2
C1 port1 port2 1.45e-14
L2 port1 1 1.83e-8
R2 1 port2 1.10e-1
R3 port1 port2 5.56e+4
L4 port1 2 1.12e-7
R4 2 port2 7.74
L5 port1 3 4.24e-7
R5 3 port2 273
L6 port1 4 1.00e-6
R6 4 port2 6.96e+3
L7 port1 5 1.99e-7
C7 5 6 5.96e-16
R7 6 port2 2.89e+3
L8 port1 7 2.78e-8
C8 7 8 3.64e-15
R8 8 port2 56.1
.ENDS LQW18AN16NG00
*----------------------------------------------------------------------
*----------------------------------------------------------------------
* SPICE Model generated by Murata Manufacturing Co., Ltd.
* Copyright(C) Murata Manufacturing Co., Ltd.
* MURATA P/N : LQW18AN16NJ00
* Property : L = 16[nH]
*----------------------------------------------------------------------
* Applicable Conditions:
*   Frequency Range = 1MHz - 20GHz
*   Temperature = 25 degC
*   DC Bias Current = 0 A
*   Small Signal Operation
*----------------------------------------------------------------------
.SUBCKT LQW18AN16NJ00 port1 port2
C1 port1 port2 1.45e-14
L2 port1 1 1.83e-8
R2 1 port2 1.10e-1
R3 port1 port2 5.56e+4
L4 port1 2 1.12e-7
R4 2 port2 7.74
L5 port1 3 4.24e-7
R5 3 port2 273
L6 port1 4 1.00e-6
R6 4 port2 6.96e+3
L7 port1 5 1.99e-7
C7 5 6 5.96e-16
R7 6 port2 2.89e+3
L8 port1 7 2.78e-8
C8 7 8 3.64e-15
R8 8 port2 56.1
.ENDS LQW18AN16NJ00
*----------------------------------------------------------------------
*----------------------------------------------------------------------
* SPICE Model generated by Murata Manufacturing Co., Ltd.
* Copyright(C) Murata Manufacturing Co., Ltd.
* MURATA P/N : LQW18AN18NG00
* Property : L = 18[nH]
*----------------------------------------------------------------------
* Applicable Conditions:
*   Frequency Range = 1MHz - 20GHz
*   Temperature = 25 degC
*   DC Bias Current = 0 A
*   Small Signal Operation
*----------------------------------------------------------------------
.SUBCKT LQW18AN18NG00 port1 port2
C1 port1 port2 2.20e-14
L2 port1 1 2.03e-8
R2 1 port2 1.10e-1
R3 port1 port2 2.92e+4
L4 port1 2 1.42e-7
R4 2 port2 9.92
L5 port1 3 5.32e-7
R5 3 port2 376
L6 port1 4 1.08e-6
R6 4 port2 7.05e+3
L7 port1 5 1.87e-8
C7 5 6 1.60e-14
R7 6 port2 27.4
L8 port1 7 2.43e-8
C8 7 8 4.51e-15
R8 8 port2 29.4
.ENDS LQW18AN18NG00
*----------------------------------------------------------------------
*----------------------------------------------------------------------
* SPICE Model generated by Murata Manufacturing Co., Ltd.
* Copyright(C) Murata Manufacturing Co., Ltd.
* MURATA P/N : LQW18AN18NJ00
* Property : L = 18[nH]
*----------------------------------------------------------------------
* Applicable Conditions:
*   Frequency Range = 1MHz - 20GHz
*   Temperature = 25 degC
*   DC Bias Current = 0 A
*   Small Signal Operation
*----------------------------------------------------------------------
.SUBCKT LQW18AN18NJ00 port1 port2
C1 port1 port2 2.20e-14
L2 port1 1 2.03e-8
R2 1 port2 1.10e-1
R3 port1 port2 2.92e+4
L4 port1 2 1.42e-7
R4 2 port2 9.92
L5 port1 3 5.32e-7
R5 3 port2 376
L6 port1 4 1.08e-6
R6 4 port2 7.05e+3
L7 port1 5 1.87e-8
C7 5 6 1.60e-14
R7 6 port2 27.4
L8 port1 7 2.43e-8
C8 7 8 4.51e-15
R8 8 port2 29.4
.ENDS LQW18AN18NJ00
*----------------------------------------------------------------------
*----------------------------------------------------------------------
* SPICE Model generated by Murata Manufacturing Co., Ltd.
* Copyright(C) Murata Manufacturing Co., Ltd.
* MURATA P/N : LQW18AN20NG00
* Property : L = 20[nH]
*----------------------------------------------------------------------
* Applicable Conditions:
*   Frequency Range = 1MHz - 20GHz
*   Temperature = 25 degC
*   DC Bias Current = 0 A
*   Small Signal Operation
*----------------------------------------------------------------------
.SUBCKT LQW18AN20NG00 port1 port2
C1 port1 port2 2.47e-14
L2 port1 1 2.27e-8
R2 1 port2 1.10e-1
R3 port1 port2 3.18e+4
L4 port1 2 1.65e-7
R4 2 port2 10.7
L5 port1 3 6.23e-7
R5 3 port2 427
L6 port1 4 1.23e-6
R6 4 port2 8.30e+3
L7 port1 5 4.71e-8
C7 5 6 5.90e-15
R7 6 port2 78.1
L8 port1 7 8.20e-9
C8 7 8 1.52e-14
R8 8 port2 18.0
.ENDS LQW18AN20NG00
*----------------------------------------------------------------------
*----------------------------------------------------------------------
* SPICE Model generated by Murata Manufacturing Co., Ltd.
* Copyright(C) Murata Manufacturing Co., Ltd.
* MURATA P/N : LQW18AN20NJ00
* Property : L = 20[nH]
*----------------------------------------------------------------------
* Applicable Conditions:
*   Frequency Range = 1MHz - 20GHz
*   Temperature = 25 degC
*   DC Bias Current = 0 A
*   Small Signal Operation
*----------------------------------------------------------------------
.SUBCKT LQW18AN20NJ00 port1 port2
C1 port1 port2 2.47e-14
L2 port1 1 2.27e-8
R2 1 port2 1.10e-1
R3 port1 port2 3.18e+4
L4 port1 2 1.65e-7
R4 2 port2 10.7
L5 port1 3 6.23e-7
R5 3 port2 427
L6 port1 4 1.23e-6
R6 4 port2 8.30e+3
L7 port1 5 4.71e-8
C7 5 6 5.90e-15
R7 6 port2 78.1
L8 port1 7 8.20e-9
C8 7 8 1.52e-14
R8 8 port2 18.0
.ENDS LQW18AN20NJ00
*----------------------------------------------------------------------
*----------------------------------------------------------------------
* SPICE Model generated by Murata Manufacturing Co., Ltd.
* Copyright(C) Murata Manufacturing Co., Ltd.
* MURATA P/N : LQW18AN22NG00
* Property : L = 22[nH]
*----------------------------------------------------------------------
* Applicable Conditions:
*   Frequency Range = 1MHz - 20GHz
*   Temperature = 25 degC
*   DC Bias Current = 0 A
*   Small Signal Operation
*----------------------------------------------------------------------
.SUBCKT LQW18AN22NG00 port1 port2
C1 port1 port2 2.56e-14
L2 port1 1 2.46e-8
R2 1 port2 1.20e-1
R3 port1 port2 3.60e+4
L4 port1 2 2.17e-7
R4 2 port2 10.9
L5 port1 3 6.21e-7
R5 3 port2 387
L6 port1 4 1.37e-6
R6 4 port2 9.39e+3
L7 port1 5 1.62e-7
C7 5 6 2.55e-15
R7 6 port2 92.0
L8 port1 7 3.72e-8
C8 7 8 3.12e-15
R8 8 port2 51.4
L9 port1 9 1.07e-7
C9 9 10 7.31e-16
R9 10 port2 307
.ENDS LQW18AN22NG00
*----------------------------------------------------------------------
*----------------------------------------------------------------------
* SPICE Model generated by Murata Manufacturing Co., Ltd.
* Copyright(C) Murata Manufacturing Co., Ltd.
* MURATA P/N : LQW18AN22NJ00
* Property : L = 22[nH]
*----------------------------------------------------------------------
* Applicable Conditions:
*   Frequency Range = 1MHz - 20GHz
*   Temperature = 25 degC
*   DC Bias Current = 0 A
*   Small Signal Operation
*----------------------------------------------------------------------
.SUBCKT LQW18AN22NJ00 port1 port2
C1 port1 port2 2.56e-14
L2 port1 1 2.46e-8
R2 1 port2 1.20e-1
R3 port1 port2 3.60e+4
L4 port1 2 2.17e-7
R4 2 port2 10.9
L5 port1 3 6.21e-7
R5 3 port2 387
L6 port1 4 1.37e-6
R6 4 port2 9.39e+3
L7 port1 5 1.62e-7
C7 5 6 2.55e-15
R7 6 port2 92.0
L8 port1 7 3.72e-8
C8 7 8 3.12e-15
R8 8 port2 51.4
L9 port1 9 1.07e-7
C9 9 10 7.31e-16
R9 10 port2 307
.ENDS LQW18AN22NJ00
*----------------------------------------------------------------------
*----------------------------------------------------------------------
* SPICE Model generated by Murata Manufacturing Co., Ltd.
* Copyright(C) Murata Manufacturing Co., Ltd.
* MURATA P/N : LQW18AN24NG00
* Property : L = 24[nH]
*----------------------------------------------------------------------
* Applicable Conditions:
*   Frequency Range = 1MHz - 20GHz
*   Temperature = 25 degC
*   DC Bias Current = 0 A
*   Small Signal Operation
*----------------------------------------------------------------------
.SUBCKT LQW18AN24NG00 port1 port2
C1 port1 port2 2.54e-14
L2 port1 1 2.83e-8
R2 1 port2 1.70e-1
R3 port1 port2 3.37e+4
L4 port1 2 1.60e-7
R4 2 port2 10.0
L5 port1 3 6.62e-7
R5 3 port2 439
L6 port1 4 1.35e-6
R6 4 port2 8.49e+3
L7 port1 5 4.17e-8
C7 5 6 1.13e-14
R7 6 port2 29.0
L8 port1 7 2.48e-8
C8 7 8 5.27e-15
R8 8 port2 75.8
L9 port1 9 2.93e-8
C9 9 10 2.61e-15
R9 10 port2 307
.ENDS LQW18AN24NG00
*----------------------------------------------------------------------
*----------------------------------------------------------------------
* SPICE Model generated by Murata Manufacturing Co., Ltd.
* Copyright(C) Murata Manufacturing Co., Ltd.
* MURATA P/N : LQW18AN24NJ00
* Property : L = 24[nH]
*----------------------------------------------------------------------
* Applicable Conditions:
*   Frequency Range = 1MHz - 20GHz
*   Temperature = 25 degC
*   DC Bias Current = 0 A
*   Small Signal Operation
*----------------------------------------------------------------------
.SUBCKT LQW18AN24NJ00 port1 port2
C1 port1 port2 2.54e-14
L2 port1 1 2.83e-8
R2 1 port2 1.70e-1
R3 port1 port2 3.37e+4
L4 port1 2 1.60e-7
R4 2 port2 10.0
L5 port1 3 6.62e-7
R5 3 port2 439
L6 port1 4 1.35e-6
R6 4 port2 8.49e+3
L7 port1 5 4.17e-8
C7 5 6 1.13e-14
R7 6 port2 29.0
L8 port1 7 2.48e-8
C8 7 8 5.27e-15
R8 8 port2 75.8
L9 port1 9 2.93e-8
C9 9 10 2.61e-15
R9 10 port2 307
.ENDS LQW18AN24NJ00
*----------------------------------------------------------------------
*----------------------------------------------------------------------
* SPICE Model generated by Murata Manufacturing Co., Ltd.
* Copyright(C) Murata Manufacturing Co., Ltd.
* MURATA P/N : LQW18AN27NG00
* Property : L = 27[nH]
*----------------------------------------------------------------------
* Applicable Conditions:
*   Frequency Range = 1MHz - 20GHz
*   Temperature = 25 degC
*   DC Bias Current = 0 A
*   Small Signal Operation
*----------------------------------------------------------------------
.SUBCKT LQW18AN27NG00 port1 port2
C1 port1 port2 1.48e-14
L2 port1 1 3.15e-8
R2 1 port2 1.70e-1
R3 port1 port2 4.15e+4
L4 port1 2 2.11e-7
R4 2 port2 13.8
L5 port1 3 7.83e-7
R5 3 port2 503
L6 port1 4 1.64e-6
R6 4 port2 9.61e+3
L7 port1 5 7.43e-7
C7 5 6 5.79e-16
R7 6 port2 8.17e+3
L8 port1 7 1.36e-8
C8 7 8 1.09e-14
R8 8 port2 22.4
L9 port1 9 3.59e-9
C9 9 10 1.76e-14
R9 10 port2 14.3
.ENDS LQW18AN27NG00
*----------------------------------------------------------------------
*----------------------------------------------------------------------
* SPICE Model generated by Murata Manufacturing Co., Ltd.
* Copyright(C) Murata Manufacturing Co., Ltd.
* MURATA P/N : LQW18AN27NJ00
* Property : L = 27[nH]
*----------------------------------------------------------------------
* Applicable Conditions:
*   Frequency Range = 1MHz - 20GHz
*   Temperature = 25 degC
*   DC Bias Current = 0 A
*   Small Signal Operation
*----------------------------------------------------------------------
.SUBCKT LQW18AN27NJ00 port1 port2
C1 port1 port2 1.48e-14
L2 port1 1 3.15e-8
R2 1 port2 1.70e-1
R3 port1 port2 4.15e+4
L4 port1 2 2.11e-7
R4 2 port2 13.8
L5 port1 3 7.83e-7
R5 3 port2 503
L6 port1 4 1.64e-6
R6 4 port2 9.61e+3
L7 port1 5 7.43e-7
C7 5 6 5.79e-16
R7 6 port2 8.17e+3
L8 port1 7 1.36e-8
C8 7 8 1.09e-14
R8 8 port2 22.4
L9 port1 9 3.59e-9
C9 9 10 1.76e-14
R9 10 port2 14.3
.ENDS LQW18AN27NJ00
*----------------------------------------------------------------------
*----------------------------------------------------------------------
* SPICE Model generated by Murata Manufacturing Co., Ltd.
* Copyright(C) Murata Manufacturing Co., Ltd.
* MURATA P/N : LQW18AN2N2D00
* Property : L = 2.2[nH]
*----------------------------------------------------------------------
* Applicable Conditions:
*   Frequency Range = 1MHz - 20GHz
*   Temperature = 25 degC
*   DC Bias Current = 0 A
*   Small Signal Operation
*----------------------------------------------------------------------
.SUBCKT LQW18AN2N2D00 port1 port2
C1 port1 port2 2.61e-15
L2 port1 1 2.57e-9
R2 1 port2 3.20e-2
R3 port1 port2 5.83e+3
L4 port1 2 7.57e-9
R4 2 port2 4.56e-1
L5 port1 3 4.01e-8
R5 3 port2 20.1
L6 port1 4 1.48e-7
R6 4 port2 755
.ENDS LQW18AN2N2D00
*----------------------------------------------------------------------
*----------------------------------------------------------------------
* SPICE Model generated by Murata Manufacturing Co., Ltd.
* Copyright(C) Murata Manufacturing Co., Ltd.
* MURATA P/N : LQW18AN30NG00
* Property : L = 30[nH]
*----------------------------------------------------------------------
* Applicable Conditions:
*   Frequency Range = 1MHz - 20GHz
*   Temperature = 25 degC
*   DC Bias Current = 0 A
*   Small Signal Operation
*----------------------------------------------------------------------
.SUBCKT LQW18AN30NG00 port1 port2
C1 port1 port2 1.88e-14
L2 port1 1 3.39e-8
R2 1 port2 1.90e-1
R3 port1 port2 5.40e+4
L4 port1 2 2.64e-7
R4 2 port2 14.5
L5 port1 3 1.04e-6
R5 3 port2 649
L6 port1 4 2.01e-6
R6 4 port2 8.74e+3
L7 port1 5 1.90e-6
C7 5 6 2.45e-16
R7 6 port2 1.73e+4
L8 port1 7 3.87e-8
C8 7 8 5.16e-15
R8 8 port2 43.7
L9 port1 9 3.41e-8
C9 9 10 2.03e-15
R9 10 port2 1.09e+3
L10 port1 11 9.74e-9
C10 11 12 6.16e-15
R10 12 port2 20.1
.ENDS LQW18AN30NG00
*----------------------------------------------------------------------
*----------------------------------------------------------------------
* SPICE Model generated by Murata Manufacturing Co., Ltd.
* Copyright(C) Murata Manufacturing Co., Ltd.
* MURATA P/N : LQW18AN30NJ00
* Property : L = 30[nH]
*----------------------------------------------------------------------
* Applicable Conditions:
*   Frequency Range = 1MHz - 20GHz
*   Temperature = 25 degC
*   DC Bias Current = 0 A
*   Small Signal Operation
*----------------------------------------------------------------------
.SUBCKT LQW18AN30NJ00 port1 port2
C1 port1 port2 1.88e-14
L2 port1 1 3.39e-8
R2 1 port2 1.90e-1
R3 port1 port2 5.40e+4
L4 port1 2 2.64e-7
R4 2 port2 14.5
L5 port1 3 1.04e-6
R5 3 port2 649
L6 port1 4 2.01e-6
R6 4 port2 8.74e+3
L7 port1 5 1.90e-6
C7 5 6 2.45e-16
R7 6 port2 1.73e+4
L8 port1 7 3.87e-8
C8 7 8 5.16e-15
R8 8 port2 43.7
L9 port1 9 3.41e-8
C9 9 10 2.03e-15
R9 10 port2 1.09e+3
L10 port1 11 9.74e-9
C10 11 12 6.16e-15
R10 12 port2 20.1
.ENDS LQW18AN30NJ00
*----------------------------------------------------------------------
*----------------------------------------------------------------------
* SPICE Model generated by Murata Manufacturing Co., Ltd.
* Copyright(C) Murata Manufacturing Co., Ltd.
* MURATA P/N : LQW18AN33NG00
* Property : L = 33[nH]
*----------------------------------------------------------------------
* Applicable Conditions:
*   Frequency Range = 1MHz - 20GHz
*   Temperature = 25 degC
*   DC Bias Current = 0 A
*   Small Signal Operation
*----------------------------------------------------------------------
.SUBCKT LQW18AN33NG00 port1 port2
C1 port1 port2 2.18e-14
L2 port1 1 3.74e-8
R2 1 port2 1.90e-1
R3 port1 port2 3.51e+4
L4 port1 2 2.74e-7
R4 2 port2 17.9
L5 port1 3 9.72e-7
R5 3 port2 644
L6 port1 4 1.92e-6
R6 4 port2 1.26e+4
L7 port1 5 3.91e-8
C7 5 6 1.08e-14
R7 6 port2 48.2
L8 port1 7 1.61e-8
C8 7 8 1.70e-14
R8 8 port2 48.0
L9 port1 9 2.08e-7
C9 9 10 4.49e-16
R9 10 port2 2.60e+3
L10 port1 11 9.18e-9
C10 11 12 6.87e-15
R10 12 port2 36.7
.ENDS LQW18AN33NG00
*----------------------------------------------------------------------
*----------------------------------------------------------------------
* SPICE Model generated by Murata Manufacturing Co., Ltd.
* Copyright(C) Murata Manufacturing Co., Ltd.
* MURATA P/N : LQW18AN33NJ00
* Property : L = 33[nH]
*----------------------------------------------------------------------
* Applicable Conditions:
*   Frequency Range = 1MHz - 20GHz
*   Temperature = 25 degC
*   DC Bias Current = 0 A
*   Small Signal Operation
*----------------------------------------------------------------------
.SUBCKT LQW18AN33NJ00 port1 port2
C1 port1 port2 2.18e-14
L2 port1 1 3.74e-8
R2 1 port2 1.90e-1
R3 port1 port2 3.51e+4
L4 port1 2 2.74e-7
R4 2 port2 17.9
L5 port1 3 9.72e-7
R5 3 port2 644
L6 port1 4 1.92e-6
R6 4 port2 1.26e+4
L7 port1 5 3.91e-8
C7 5 6 1.08e-14
R7 6 port2 48.2
L8 port1 7 1.61e-8
C8 7 8 1.70e-14
R8 8 port2 48.0
L9 port1 9 2.08e-7
C9 9 10 4.49e-16
R9 10 port2 2.60e+3
L10 port1 11 9.18e-9
C10 11 12 6.87e-15
R10 12 port2 36.7
.ENDS LQW18AN33NJ00
*----------------------------------------------------------------------
*----------------------------------------------------------------------
* SPICE Model generated by Murata Manufacturing Co., Ltd.
* Copyright(C) Murata Manufacturing Co., Ltd.
* MURATA P/N : LQW18AN36NG00
* Property : L = 36[nH]
*----------------------------------------------------------------------
* Applicable Conditions:
*   Frequency Range = 1MHz - 20GHz
*   Temperature = 25 degC
*   DC Bias Current = 0 A
*   Small Signal Operation
*----------------------------------------------------------------------
.SUBCKT LQW18AN36NG00 port1 port2
C1 port1 port2 1.43e-14
L2 port1 1 4.15e-8
R2 1 port2 2.10e-1
R3 port1 port2 7.82e+4
L4 port1 2 2.83e-7
R4 2 port2 17.9
L5 port1 3 1.14e-6
R5 3 port2 781
L6 port1 4 2.28e-6
R6 4 port2 1.50e+4
L7 port1 5 1.41e-5
C7 5 6 4.69e-17
R7 6 port2 6.77e+4
L8 port1 7 4.37e-8
C8 7 8 5.41e-15
R8 8 port2 91.3
L9 port1 9 6.20e-8
C9 9 10 1.78e-15
R9 10 port2 1.54e+3
L10 port1 11 1.23e-8
C10 11 12 5.88e-15
R10 12 port2 23.1
.ENDS LQW18AN36NG00
*----------------------------------------------------------------------
*----------------------------------------------------------------------
* SPICE Model generated by Murata Manufacturing Co., Ltd.
* Copyright(C) Murata Manufacturing Co., Ltd.
* MURATA P/N : LQW18AN36NJ00
* Property : L = 36[nH]
*----------------------------------------------------------------------
* Applicable Conditions:
*   Frequency Range = 1MHz - 20GHz
*   Temperature = 25 degC
*   DC Bias Current = 0 A
*   Small Signal Operation
*----------------------------------------------------------------------
.SUBCKT LQW18AN36NJ00 port1 port2
C1 port1 port2 1.43e-14
L2 port1 1 4.15e-8
R2 1 port2 2.10e-1
R3 port1 port2 7.82e+4
L4 port1 2 2.83e-7
R4 2 port2 17.9
L5 port1 3 1.14e-6
R5 3 port2 781
L6 port1 4 2.28e-6
R6 4 port2 1.50e+4
L7 port1 5 1.41e-5
C7 5 6 4.69e-17
R7 6 port2 6.77e+4
L8 port1 7 4.37e-8
C8 7 8 5.41e-15
R8 8 port2 91.3
L9 port1 9 6.20e-8
C9 9 10 1.78e-15
R9 10 port2 1.54e+3
L10 port1 11 1.23e-8
C10 11 12 5.88e-15
R10 12 port2 23.1
.ENDS LQW18AN36NJ00
*----------------------------------------------------------------------
*----------------------------------------------------------------------
* SPICE Model generated by Murata Manufacturing Co., Ltd.
* Copyright(C) Murata Manufacturing Co., Ltd.
* MURATA P/N : LQW18AN39NG00
* Property : L = 39[nH]
*----------------------------------------------------------------------
* Applicable Conditions:
*   Frequency Range = 1MHz - 20GHz
*   Temperature = 25 degC
*   DC Bias Current = 0 A
*   Small Signal Operation
*----------------------------------------------------------------------
.SUBCKT LQW18AN39NG00 port1 port2
C1 port1 port2 1.64e-14
L2 port1 1 4.36e-8
R2 1 port2 2.10e-1
R3 port1 port2 4.69e+4
L4 port1 2 4.03e-7
R4 2 port2 26.2
L5 port1 3 1.35e-6
R5 3 port2 818
L6 port1 4 2.46e-6
R6 4 port2 1.30e+4
L7 port1 5 1.99e-7
C7 5 6 2.66e-15
R7 6 port2 271
L8 port1 7 1.94e-8
C8 7 8 1.53e-14
R8 8 port2 55.6
L9 port1 9 3.41e-7
C9 9 10 3.12e-16
R9 10 port2 9.93e+3
L10 port1 11 8.57e-9
C10 11 12 8.94e-15
R10 12 port2 23.9
.ENDS LQW18AN39NG00
*----------------------------------------------------------------------
*----------------------------------------------------------------------
* SPICE Model generated by Murata Manufacturing Co., Ltd.
* Copyright(C) Murata Manufacturing Co., Ltd.
* MURATA P/N : LQW18AN39NJ00
* Property : L = 39[nH]
*----------------------------------------------------------------------
* Applicable Conditions:
*   Frequency Range = 1MHz - 20GHz
*   Temperature = 25 degC
*   DC Bias Current = 0 A
*   Small Signal Operation
*----------------------------------------------------------------------
.SUBCKT LQW18AN39NJ00 port1 port2
C1 port1 port2 1.64e-14
L2 port1 1 4.36e-8
R2 1 port2 2.10e-1
R3 port1 port2 4.69e+4
L4 port1 2 4.03e-7
R4 2 port2 26.2
L5 port1 3 1.35e-6
R5 3 port2 818
L6 port1 4 2.46e-6
R6 4 port2 1.30e+4
L7 port1 5 1.99e-7
C7 5 6 2.66e-15
R7 6 port2 271
L8 port1 7 1.94e-8
C8 7 8 1.53e-14
R8 8 port2 55.6
L9 port1 9 3.41e-7
C9 9 10 3.12e-16
R9 10 port2 9.93e+3
L10 port1 11 8.57e-9
C10 11 12 8.94e-15
R10 12 port2 23.9
.ENDS LQW18AN39NJ00
*----------------------------------------------------------------------