*----------------------------------------------------------------------
* SPICE Model generated by Murata Manufacturing Co., Ltd.
* Copyright(C) Murata Manufacturing Co., Ltd.
* MURATA P/N : LQW15CN1R0M10
* Property : L = 1000[nH]
*----------------------------------------------------------------------
* Applicable Conditions:
*   Frequency Range = 1MHz - 20GHz
*   Temperature = 25 degC
*   DC Bias Current = 0 A
*   Small Signal Operation
*----------------------------------------------------------------------
.SUBCKT LQW15CN1R0M10 port1 port2
C1 port1 port2 3.05e-13
L2 port1 1 9.40e-7
R2 1 port2 7.80e-1
R3 port1 port2 6.81e+3
L4 port1 2 1.04e-5
R4 2 port2 501
L5 port1 3 1.31e-5
R5 3 port2 2.75e+3
L6 port1 4 1.95e-5
R6 4 port2 1.60e+4
L7 port1 5 3.19e-8
C7 5 6 3.82e-13
R7 6 port2 51.5
.ENDS LQW15CN1R0M10
*----------------------------------------------------------------------
*----------------------------------------------------------------------
* SPICE Model generated by Murata Manufacturing Co., Ltd.
* Copyright(C) Murata Manufacturing Co., Ltd.
* MURATA P/N : LQW15CN1R5M10
* Property : L = 1500[nH]
*----------------------------------------------------------------------
* Applicable Conditions:
*   Frequency Range = 1MHz - 20GHz
*   Temperature = 25 degC
*   DC Bias Current = 0 A
*   Small Signal Operation
*----------------------------------------------------------------------
.SUBCKT LQW15CN1R5M10 port1 port2
C1 port1 port2 9.43e-15
L2 port1 1 1.56e-6
R2 1 port2 1.25
R3 port1 port2 8.57e+3
L4 port1 2 1.73e-5
R4 2 port2 501
L5 port1 3 1.85e-5
R5 3 port2 3.46e+3
L6 port1 4 2.00e-5
R6 4 port2 1.68e+4
L7 port1 5 6.51e-9
C7 5 6 3.57e-13
R7 6 port2 14.5
.ENDS LQW15CN1R5M10
*----------------------------------------------------------------------
*----------------------------------------------------------------------
* SPICE Model generated by Murata Manufacturing Co., Ltd.
* Copyright(C) Murata Manufacturing Co., Ltd.
* MURATA P/N : LQW15CN20NJ10
* Property : L = 20[nH]
*----------------------------------------------------------------------
* Applicable Conditions:
*   Frequency Range = 1MHz - 20GHz
*   Temperature = 25 degC
*   DC Bias Current = 0 A
*   Small Signal Operation
*----------------------------------------------------------------------
.SUBCKT LQW15CN20NJ10 port1 port2
C1 port1 port2 6.19e-14
L2 port1 1 2.16e-8
R2 1 port2 3.23e-2
R3 port1 port2 182
L4 port1 2 2.37e-7
R4 2 port2 77.5
.ENDS LQW15CN20NJ10
*----------------------------------------------------------------------
*----------------------------------------------------------------------
* SPICE Model generated by Murata Manufacturing Co., Ltd.
* Copyright(C) Murata Manufacturing Co., Ltd.
* MURATA P/N : LQW15CN20NK10
* Property : L = 20[nH]
*----------------------------------------------------------------------
* Applicable Conditions:
*   Frequency Range = 1MHz - 20GHz
*   Temperature = 25 degC
*   DC Bias Current = 0 A
*   Small Signal Operation
*----------------------------------------------------------------------
.SUBCKT LQW15CN20NK10 port1 port2
C1 port1 port2 6.19e-14
L2 port1 1 2.16e-8
R2 1 port2 3.23e-2
R3 port1 port2 182
L4 port1 2 2.37e-7
R4 2 port2 77.5
.ENDS LQW15CN20NK10
*----------------------------------------------------------------------
*----------------------------------------------------------------------
* SPICE Model generated by Murata Manufacturing Co., Ltd.
* Copyright(C) Murata Manufacturing Co., Ltd.
* MURATA P/N : LQW15CN2R2M10
* Property : L = 2200[nH]
*----------------------------------------------------------------------
* Applicable Conditions:
*   Frequency Range = 1MHz - 20GHz
*   Temperature = 25 degC
*   DC Bias Current = 0 A
*   Small Signal Operation
*----------------------------------------------------------------------
.SUBCKT LQW15CN2R2M10 port1 port2
C1 port1 port2 6.68e-14
L2 port1 1 2.31e-6
R2 1 port2 1.80
R3 port1 port2 8.57e+3
L4 port1 2 2.23e-5
R4 2 port2 501
L5 port1 3 3.69e-5
R5 3 port2 3.46e+3
L6 port1 4 5.14e-5
R6 4 port2 1.68e+4
L7 port1 5 6.82e-9
C7 5 6 3.83e-13
R7 6 port2 43.8
.ENDS LQW15CN2R2M10
*----------------------------------------------------------------------
*----------------------------------------------------------------------
* SPICE Model generated by Murata Manufacturing Co., Ltd.
* Copyright(C) Murata Manufacturing Co., Ltd.
* MURATA P/N : LQW15CN34NJ10
* Property : L = 34[nH]
*----------------------------------------------------------------------
* Applicable Conditions:
*   Frequency Range = 1MHz - 20GHz
*   Temperature = 25 degC
*   DC Bias Current = 0 A
*   Small Signal Operation
*----------------------------------------------------------------------
.SUBCKT LQW15CN34NJ10 port1 port2
C1 port1 port2 5.75e-14
L2 port1 1 3.79e-8
R2 1 port2 7.97e-2
R3 port1 port2 266
L4 port1 2 4.01e-7
R4 2 port2 84.9
.ENDS LQW15CN34NJ10
*----------------------------------------------------------------------
*----------------------------------------------------------------------
* SPICE Model generated by Murata Manufacturing Co., Ltd.
* Copyright(C) Murata Manufacturing Co., Ltd.
* MURATA P/N : LQW15CN34NK10
* Property : L = 34[nH]
*----------------------------------------------------------------------
* Applicable Conditions:
*   Frequency Range = 1MHz - 20GHz
*   Temperature = 25 degC
*   DC Bias Current = 0 A
*   Small Signal Operation
*----------------------------------------------------------------------
.SUBCKT LQW15CN34NK10 port1 port2
C1 port1 port2 5.75e-14
L2 port1 1 3.79e-8
R2 1 port2 7.97e-2
R3 port1 port2 266
L4 port1 2 4.01e-7
R4 2 port2 84.9
.ENDS LQW15CN34NK10
*----------------------------------------------------------------------
*----------------------------------------------------------------------
* SPICE Model generated by Murata Manufacturing Co., Ltd.
* Copyright(C) Murata Manufacturing Co., Ltd.
* MURATA P/N : LQW15CN3R3M10
* Property : L = 3300[nH]
*----------------------------------------------------------------------
* Applicable Conditions:
*   Frequency Range = 1MHz - 20GHz
*   Temperature = 25 degC
*   DC Bias Current = 0 A
*   Small Signal Operation
*----------------------------------------------------------------------
.SUBCKT LQW15CN3R3M10 port1 port2
C1 port1 port2 1.16e-13
L2 port1 1 3.07e-6
R2 1 port2 3.04
R3 port1 port2 1.21e+4
L4 port1 2 5.40e-5
R4 2 port2 2.37e+3
L5 port1 3 8.16e-5
R5 3 port2 6.51e+3
L6 port1 4 8.99e-5
R6 4 port2 1.18e+4
L7 port1 5 4.26e-7
C7 5 6 1.05e-13
R7 6 port2 369
L8 port1 7 1.68e-8
C8 7 8 1.97e-13
R8 8 port2 76.3
.ENDS LQW15CN3R3M10
*----------------------------------------------------------------------
*----------------------------------------------------------------------
* SPICE Model generated by Murata Manufacturing Co., Ltd.
* Copyright(C) Murata Manufacturing Co., Ltd.
* MURATA P/N : LQW15CN53NJ10
* Property : L = 53[nH]
*----------------------------------------------------------------------
* Applicable Conditions:
*   Frequency Range = 1MHz - 20GHz
*   Temperature = 25 degC
*   DC Bias Current = 0 A
*   Small Signal Operation
*----------------------------------------------------------------------
.SUBCKT LQW15CN53NJ10 port1 port2
C1 port1 port2 3.44e-14
L2 port1 1 5.81e-8
R2 1 port2 1.38e-1
R3 port1 port2 366
L4 port1 2 5.76e-7
R4 2 port2 119
.ENDS LQW15CN53NJ10
*----------------------------------------------------------------------
*----------------------------------------------------------------------
* SPICE Model generated by Murata Manufacturing Co., Ltd.
* Copyright(C) Murata Manufacturing Co., Ltd.
* MURATA P/N : LQW15CN53NK10
* Property : L = 53[nH]
*----------------------------------------------------------------------
* Applicable Conditions:
*   Frequency Range = 1MHz - 20GHz
*   Temperature = 25 degC
*   DC Bias Current = 0 A
*   Small Signal Operation
*----------------------------------------------------------------------
.SUBCKT LQW15CN53NK10 port1 port2
C1 port1 port2 3.44e-14
L2 port1 1 5.81e-8
R2 1 port2 1.38e-1
R3 port1 port2 366
L4 port1 2 5.76e-7
R4 2 port2 119
.ENDS LQW15CN53NK10
*----------------------------------------------------------------------
*----------------------------------------------------------------------
* SPICE Model generated by Murata Manufacturing Co., Ltd.
* Copyright(C) Murata Manufacturing Co., Ltd.
* MURATA P/N : LQW15CN77NJ10
* Property : L = 77[nH]
*----------------------------------------------------------------------
* Applicable Conditions:
*   Frequency Range = 1MHz - 20GHz
*   Temperature = 25 degC
*   DC Bias Current = 0 A
*   Small Signal Operation
*----------------------------------------------------------------------
.SUBCKT LQW15CN77NJ10 port1 port2
C1 port1 port2 6.12e-14
L2 port1 1 8.79e-8
R2 1 port2 1.38e-1
R3 port1 port2 636
L4 port1 2 6.46e-7
R4 2 port2 119
.ENDS LQW15CN77NJ10
*----------------------------------------------------------------------
*----------------------------------------------------------------------
* SPICE Model generated by Murata Manufacturing Co., Ltd.
* Copyright(C) Murata Manufacturing Co., Ltd.
* MURATA P/N : LQW15CN77NK10
* Property : L = 77[nH]
*----------------------------------------------------------------------
* Applicable Conditions:
*   Frequency Range = 1MHz - 20GHz
*   Temperature = 25 degC
*   DC Bias Current = 0 A
*   Small Signal Operation
*----------------------------------------------------------------------
.SUBCKT LQW15CN77NK10 port1 port2
C1 port1 port2 6.12e-14
L2 port1 1 8.79e-8
R2 1 port2 1.38e-1
R3 port1 port2 636
L4 port1 2 6.46e-7
R4 2 port2 119
.ENDS LQW15CN77NK10
*----------------------------------------------------------------------
*----------------------------------------------------------------------
* SPICE Model generated by Murata Manufacturing Co., Ltd.
* Copyright(C) Murata Manufacturing Co., Ltd.
* MURATA P/N : LQW15CNR11J10
* Property : L = 106[nH]
*----------------------------------------------------------------------
* Applicable Conditions:
*   Frequency Range = 1MHz - 20GHz
*   Temperature = 25 degC
*   DC Bias Current = 0 A
*   Small Signal Operation
*----------------------------------------------------------------------
.SUBCKT LQW15CNR11J10 port1 port2
C1 port1 port2 4.59e-14
L2 port1 1 1.17e-7
R2 1 port2 3.17e-1
R3 port1 port2 729
L4 port1 2 1.15e-6
R4 2 port2 237
.ENDS LQW15CNR11J10
*----------------------------------------------------------------------
*----------------------------------------------------------------------
* SPICE Model generated by Murata Manufacturing Co., Ltd.
* Copyright(C) Murata Manufacturing Co., Ltd.
* MURATA P/N : LQW15CNR11K10
* Property : L = 106[nH]
*----------------------------------------------------------------------
* Applicable Conditions:
*   Frequency Range = 1MHz - 20GHz
*   Temperature = 25 degC
*   DC Bias Current = 0 A
*   Small Signal Operation
*----------------------------------------------------------------------
.SUBCKT LQW15CNR11K10 port1 port2
C1 port1 port2 4.59e-14
L2 port1 1 1.17e-7
R2 1 port2 3.17e-1
R3 port1 port2 729
L4 port1 2 1.15e-6
R4 2 port2 237
.ENDS LQW15CNR11K10
*----------------------------------------------------------------------
*----------------------------------------------------------------------
* SPICE Model generated by Murata Manufacturing Co., Ltd.
* Copyright(C) Murata Manufacturing Co., Ltd.
* MURATA P/N : LQW15CNR14J10
* Property : L = 140[nH]
*----------------------------------------------------------------------
* Applicable Conditions:
*   Frequency Range = 1MHz - 20GHz
*   Temperature = 25 degC
*   DC Bias Current = 0 A
*   Small Signal Operation
*----------------------------------------------------------------------
.SUBCKT LQW15CNR14J10 port1 port2
C1 port1 port2 4.72e-14
L2 port1 1 1.53e-7
R2 1 port2 4.71e-1
R3 port1 port2 1.01e+3
L4 port1 2 1.44e-6
R4 2 port2 304
.ENDS LQW15CNR14J10
*----------------------------------------------------------------------
*----------------------------------------------------------------------
* SPICE Model generated by Murata Manufacturing Co., Ltd.
* Copyright(C) Murata Manufacturing Co., Ltd.
* MURATA P/N : LQW15CNR14K10
* Property : L = 140[nH]
*----------------------------------------------------------------------
* Applicable Conditions:
*   Frequency Range = 1MHz - 20GHz
*   Temperature = 25 degC
*   DC Bias Current = 0 A
*   Small Signal Operation
*----------------------------------------------------------------------
.SUBCKT LQW15CNR14K10 port1 port2
C1 port1 port2 4.72e-14
L2 port1 1 1.53e-7
R2 1 port2 4.71e-1
R3 port1 port2 1.01e+3
L4 port1 2 1.44e-6
R4 2 port2 304
.ENDS LQW15CNR14K10
*----------------------------------------------------------------------
*----------------------------------------------------------------------
* SPICE Model generated by Murata Manufacturing Co., Ltd.
* Copyright(C) Murata Manufacturing Co., Ltd.
* MURATA P/N : LQW15CNR18J10
* Property : L = 180[nH]
*----------------------------------------------------------------------
* Applicable Conditions:
*   Frequency Range = 1MHz - 20GHz
*   Temperature = 25 degC
*   DC Bias Current = 0 A
*   Small Signal Operation
*----------------------------------------------------------------------
.SUBCKT LQW15CNR18J10 port1 port2
C1 port1 port2 4.81e-14
L2 port1 1 1.97e-7
R2 1 port2 7.12e-1
R3 port1 port2 1.28e+3
L4 port1 2 2.00e-6
R4 2 port2 502
.ENDS LQW15CNR18J10
*----------------------------------------------------------------------
*----------------------------------------------------------------------
* SPICE Model generated by Murata Manufacturing Co., Ltd.
* Copyright(C) Murata Manufacturing Co., Ltd.
* MURATA P/N : LQW15CNR18K10
* Property : L = 180[nH]
*----------------------------------------------------------------------
* Applicable Conditions:
*   Frequency Range = 1MHz - 20GHz
*   Temperature = 25 degC
*   DC Bias Current = 0 A
*   Small Signal Operation
*----------------------------------------------------------------------
.SUBCKT LQW15CNR18K10 port1 port2
C1 port1 port2 4.81e-14
L2 port1 1 1.97e-7
R2 1 port2 7.12e-1
R3 port1 port2 1.28e+3
L4 port1 2 2.00e-6
R4 2 port2 502
.ENDS LQW15CNR18K10
*----------------------------------------------------------------------
*----------------------------------------------------------------------
* SPICE Model generated by Murata Manufacturing Co., Ltd.
* Copyright(C) Murata Manufacturing Co., Ltd.
* MURATA P/N : LQW15CNR22J10
* Property : L = 220[nH]
*----------------------------------------------------------------------
* Applicable Conditions:
*   Frequency Range = 1MHz - 20GHz
*   Temperature = 25 degC
*   DC Bias Current = 0 A
*   Small Signal Operation
*----------------------------------------------------------------------
.SUBCKT LQW15CNR22J10 port1 port2
C1 port1 port2 5.08e-14
L2 port1 1 2.45e-7
R2 1 port2 8.87e-1
R3 port1 port2 1.83e+3
L4 port1 2 2.48e-6
R4 2 port2 667
.ENDS LQW15CNR22J10
*----------------------------------------------------------------------
*----------------------------------------------------------------------
* SPICE Model generated by Murata Manufacturing Co., Ltd.
* Copyright(C) Murata Manufacturing Co., Ltd.
* MURATA P/N : LQW15CNR22K10
* Property : L = 220[nH]
*----------------------------------------------------------------------
* Applicable Conditions:
*   Frequency Range = 1MHz - 20GHz
*   Temperature = 25 degC
*   DC Bias Current = 0 A
*   Small Signal Operation
*----------------------------------------------------------------------
.SUBCKT LQW15CNR22K10 port1 port2
C1 port1 port2 5.08e-14
L2 port1 1 2.45e-7
R2 1 port2 8.87e-1
R3 port1 port2 1.83e+3
L4 port1 2 2.48e-6
R4 2 port2 667
.ENDS LQW15CNR22K10
*----------------------------------------------------------------------
*----------------------------------------------------------------------
* SPICE Model generated by Murata Manufacturing Co., Ltd.
* Copyright(C) Murata Manufacturing Co., Ltd.
* MURATA P/N : LQW15CNR27J10
* Property : L = 270[nH]
*----------------------------------------------------------------------
* Applicable Conditions:
*   Frequency Range = 1MHz - 20GHz
*   Temperature = 25 degC
*   DC Bias Current = 0 A
*   Small Signal Operation
*----------------------------------------------------------------------
.SUBCKT LQW15CNR27J10 port1 port2
C1 port1 port2 6.91e-14
L2 port1 1 3.02e-7
R2 1 port2 1.02
R3 port1 port2 2.19e+3
L4 port1 2 2.95e-6
R4 2 port2 638
.ENDS LQW15CNR27J10
*----------------------------------------------------------------------
*----------------------------------------------------------------------
* SPICE Model generated by Murata Manufacturing Co., Ltd.
* Copyright(C) Murata Manufacturing Co., Ltd.
* MURATA P/N : LQW15CNR27K10
* Property : L = 270[nH]
*----------------------------------------------------------------------
* Applicable Conditions:
*   Frequency Range = 1MHz - 20GHz
*   Temperature = 25 degC
*   DC Bias Current = 0 A
*   Small Signal Operation
*----------------------------------------------------------------------
.SUBCKT LQW15CNR27K10 port1 port2
C1 port1 port2 6.91e-14
L2 port1 1 3.02e-7
R2 1 port2 1.02
R3 port1 port2 2.19e+3
L4 port1 2 2.95e-6
R4 2 port2 638
.ENDS LQW15CNR27K10
*----------------------------------------------------------------------
*----------------------------------------------------------------------
* SPICE Model generated by Murata Manufacturing Co., Ltd.
* Copyright(C) Murata Manufacturing Co., Ltd.
* MURATA P/N : LQW15CNR33J10
* Property : L = 330[nH]
*----------------------------------------------------------------------
* Applicable Conditions:
*   Frequency Range = 1MHz - 20GHz
*   Temperature = 25 degC
*   DC Bias Current = 0 A
*   Small Signal Operation
*----------------------------------------------------------------------
.SUBCKT LQW15CNR33J10 port1 port2
C1 port1 port2 8.95e-14
L2 port1 1 3.58e-7
R2 1 port2 1.25
R3 port1 port2 2.33e+3
L4 port1 2 3.62e-6
R4 2 port2 909
.ENDS LQW15CNR33J10
*----------------------------------------------------------------------
*----------------------------------------------------------------------
* SPICE Model generated by Murata Manufacturing Co., Ltd.
* Copyright(C) Murata Manufacturing Co., Ltd.
* MURATA P/N : LQW15CNR33K10
* Property : L = 330[nH]
*----------------------------------------------------------------------
* Applicable Conditions:
*   Frequency Range = 1MHz - 20GHz
*   Temperature = 25 degC
*   DC Bias Current = 0 A
*   Small Signal Operation
*----------------------------------------------------------------------
.SUBCKT LQW15CNR33K10 port1 port2
C1 port1 port2 8.95e-14
L2 port1 1 3.58e-7
R2 1 port2 1.25
R3 port1 port2 2.33e+3
L4 port1 2 3.62e-6
R4 2 port2 909
.ENDS LQW15CNR33K10
*----------------------------------------------------------------------
*----------------------------------------------------------------------
* SPICE Model generated by Murata Manufacturing Co., Ltd.
* Copyright(C) Murata Manufacturing Co., Ltd.
* MURATA P/N : LQW15CNR39J10
* Property : L = 390[nH]
*----------------------------------------------------------------------
* Applicable Conditions:
*   Frequency Range = 1MHz - 20GHz
*   Temperature = 25 degC
*   DC Bias Current = 0 A
*   Small Signal Operation
*----------------------------------------------------------------------
.SUBCKT LQW15CNR39J10 port1 port2
C1 port1 port2 1.37e-13
L2 port1 1 4.18e-7
R2 1 port2 1.46
R3 port1 port2 2.95e+3
L4 port1 2 4.50e-6
R4 2 port2 1.13e+3
L5 port1 3 1.87e-7
C5 3 4 1.96e-14
R5 4 port2 874
.ENDS LQW15CNR39J10
*----------------------------------------------------------------------
*----------------------------------------------------------------------
* SPICE Model generated by Murata Manufacturing Co., Ltd.
* Copyright(C) Murata Manufacturing Co., Ltd.
* MURATA P/N : LQW15CNR39K10
* Property : L = 390[nH]
*----------------------------------------------------------------------
* Applicable Conditions:
*   Frequency Range = 1MHz - 20GHz
*   Temperature = 25 degC
*   DC Bias Current = 0 A
*   Small Signal Operation
*----------------------------------------------------------------------
.SUBCKT LQW15CNR39K10 port1 port2
C1 port1 port2 1.37e-13
L2 port1 1 4.18e-7
R2 1 port2 1.46
R3 port1 port2 2.95e+3
L4 port1 2 4.50e-6
R4 2 port2 1.13e+3
L5 port1 3 1.87e-7
C5 3 4 1.96e-14
R5 4 port2 874
.ENDS LQW15CNR39K10
*----------------------------------------------------------------------
*----------------------------------------------------------------------
* SPICE Model generated by Murata Manufacturing Co., Ltd.
* Copyright(C) Murata Manufacturing Co., Ltd.
* MURATA P/N : LQW15CNR42J10
* Property : L = 420[nH]
*----------------------------------------------------------------------
* Applicable Conditions:
*   Frequency Range = 1MHz - 20GHz
*   Temperature = 25 degC
*   DC Bias Current = 0 A
*   Small Signal Operation
*----------------------------------------------------------------------
.SUBCKT LQW15CNR42J10 port1 port2
C1 port1 port2 1.45e-13
L2 port1 1 4.25e-7
R2 1 port2 1.65
R3 port1 port2 3.15e+3
L4 port1 2 4.60e-6
R4 2 port2 1.16e+3
L5 port1 3 1.44e-7
C5 3 4 2.65e-14
R5 4 port2 859
.ENDS LQW15CNR42J10
*----------------------------------------------------------------------
*----------------------------------------------------------------------
* SPICE Model generated by Murata Manufacturing Co., Ltd.
* Copyright(C) Murata Manufacturing Co., Ltd.
* MURATA P/N : LQW15CNR42K10
* Property : L = 420[nH]
*----------------------------------------------------------------------
* Applicable Conditions:
*   Frequency Range = 1MHz - 20GHz
*   Temperature = 25 degC
*   DC Bias Current = 0 A
*   Small Signal Operation
*----------------------------------------------------------------------
.SUBCKT LQW15CNR42K10 port1 port2
C1 port1 port2 1.45e-13
L2 port1 1 4.25e-7
R2 1 port2 1.65
R3 port1 port2 3.15e+3
L4 port1 2 4.60e-6
R4 2 port2 1.16e+3
L5 port1 3 1.44e-7
C5 3 4 2.65e-14
R5 4 port2 859
.ENDS LQW15CNR42K10
*----------------------------------------------------------------------
*----------------------------------------------------------------------
* SPICE Model generated by Murata Manufacturing Co., Ltd.
* Copyright(C) Murata Manufacturing Co., Ltd.
* MURATA P/N : LQW15CNR47J10
* Property : L = 470[nH]
*----------------------------------------------------------------------
* Applicable Conditions:
*   Frequency Range = 1MHz - 20GHz
*   Temperature = 25 degC
*   DC Bias Current = 0 A
*   Small Signal Operation
*----------------------------------------------------------------------
.SUBCKT LQW15CNR47J10 port1 port2
C1 port1 port2 1.18e-13
L2 port1 1 4.84e-7
R2 1 port2 1.68
R3 port1 port2 3.00e+3
L4 port1 2 5.09e-6
R4 2 port2 1.25e+3
L5 port1 3 9.83e-8
C5 3 4 3.39e-14
R5 4 port2 956
.ENDS LQW15CNR47J10
*----------------------------------------------------------------------
*----------------------------------------------------------------------
* SPICE Model generated by Murata Manufacturing Co., Ltd.
* Copyright(C) Murata Manufacturing Co., Ltd.
* MURATA P/N : LQW15CNR47K10
* Property : L = 470[nH]
*----------------------------------------------------------------------
* Applicable Conditions:
*   Frequency Range = 1MHz - 20GHz
*   Temperature = 25 degC
*   DC Bias Current = 0 A
*   Small Signal Operation
*----------------------------------------------------------------------
.SUBCKT LQW15CNR47K10 port1 port2
C1 port1 port2 1.18e-13
L2 port1 1 4.84e-7
R2 1 port2 1.68
R3 port1 port2 3.00e+3
L4 port1 2 5.09e-6
R4 2 port2 1.25e+3
L5 port1 3 9.83e-8
C5 3 4 3.39e-14
R5 4 port2 956
.ENDS LQW15CNR47K10
*----------------------------------------------------------------------
*----------------------------------------------------------------------
* SPICE Model generated by Murata Manufacturing Co., Ltd.
* Copyright(C) Murata Manufacturing Co., Ltd.
* MURATA P/N : LQW15CNR56J10
* Property : L = 560[nH]
*----------------------------------------------------------------------
* Applicable Conditions:
*   Frequency Range = 1MHz - 20GHz
*   Temperature = 25 degC
*   DC Bias Current = 0 A
*   Small Signal Operation
*----------------------------------------------------------------------
.SUBCKT LQW15CNR56J10 port1 port2
C1 port1 port2 2.10e-13
L2 port1 1 5.56e-7
R2 1 port2 1.95
R3 port1 port2 3.47e+3
L4 port1 2 5.22e-6
R4 2 port2 1.64e+3
L5 port1 3 4.58e-8
C5 3 4 7.23e-14
R5 4 port2 322
.ENDS LQW15CNR56J10
*----------------------------------------------------------------------
*----------------------------------------------------------------------
* SPICE Model generated by Murata Manufacturing Co., Ltd.
* Copyright(C) Murata Manufacturing Co., Ltd.
* MURATA P/N : LQW15CNR56K10
* Property : L = 560[nH]
*----------------------------------------------------------------------
* Applicable Conditions:
*   Frequency Range = 1MHz - 20GHz
*   Temperature = 25 degC
*   DC Bias Current = 0 A
*   Small Signal Operation
*----------------------------------------------------------------------
.SUBCKT LQW15CNR56K10 port1 port2
C1 port1 port2 2.10e-13
L2 port1 1 5.56e-7
R2 1 port2 1.95
R3 port1 port2 3.47e+3
L4 port1 2 5.22e-6
R4 2 port2 1.64e+3
L5 port1 3 4.58e-8
C5 3 4 7.23e-14
R5 4 port2 322
.ENDS LQW15CNR56K10
*----------------------------------------------------------------------
*----------------------------------------------------------------------
* SPICE Model generated by Murata Manufacturing Co., Ltd.
* Copyright(C) Murata Manufacturing Co., Ltd.
* MURATA P/N : LQW15CNR68M10
* Property : L = 680[nH]
*----------------------------------------------------------------------
* Applicable Conditions:
*   Frequency Range = 1MHz - 20GHz
*   Temperature = 25 degC
*   DC Bias Current = 0 A
*   Small Signal Operation
*----------------------------------------------------------------------
.SUBCKT LQW15CNR68M10 port1 port2
C1 port1 port2 1.01e-13
L2 port1 1 6.66e-7
R2 1 port2 6.50e-1
R3 port1 port2 5.29e+3
L4 port1 2 6.74e-6
R4 2 port2 407
L5 port1 3 9.67e-6
R5 3 port2 2.29e+3
L6 port1 4 7.77e-6
R6 4 port2 1.60e+4
L7 port1 5 2.53e-8
C7 5 6 2.10e-13
R7 6 port2 61.9
.ENDS LQW15CNR68M10
*----------------------------------------------------------------------
*----------------------------------------------------------------------
* SPICE Model generated by Murata Manufacturing Co., Ltd.
* Copyright(C) Murata Manufacturing Co., Ltd.
* MURATA P/N : LQW15CNR82M10
* Property : L = 820[nH]
*----------------------------------------------------------------------
* Applicable Conditions:
*   Frequency Range = 1MHz - 20GHz
*   Temperature = 25 degC
*   DC Bias Current = 0 A
*   Small Signal Operation
*----------------------------------------------------------------------
.SUBCKT LQW15CNR82M10 port1 port2
C1 port1 port2 1.33e-13
L2 port1 1 7.47e-7
R2 1 port2 7.00e-1
R3 port1 port2 6.81e+3
L4 port1 2 8.49e-6
R4 2 port2 501
L5 port1 3 9.90e-6
R5 3 port2 2.75e+3
L6 port1 4 7.77e-6
R6 4 port2 1.60e+4
L7 port1 5 2.65e-8
C7 5 6 2.77e-13
R7 6 port2 67.9
.ENDS LQW15CNR82M10
*----------------------------------------------------------------------
