*----------------------------------------------------------------------
* SPICE Model generated by Murata Manufacturing Co., Ltd.
* Copyright(C) Murata Manufacturing Co., Ltd.
* MURATA P/N : LQW2UAS12NG00
* Property : L = 12[nH]
*----------------------------------------------------------------------
* Applicable Conditions:
*   Frequency Range = 1MHz - 20GHz
*   Temperature = 25 degC
*   DC Bias Current = 0 A
*   Small Signal Operation
*----------------------------------------------------------------------
.SUBCKT LQW2UAS12NG00 port1 port2
C1 port1 port2 8.82e-14
L2 port1 1 1.22e-8
R2 1 port2 5.30e-2
R3 port1 port2 2.45e+4
L4 port1 2 1.65e-7
R4 2 port2 25.0
L5 port1 3 6.11e-7
R5 3 port2 1.62e+3
.ENDS LQW2UAS12NG00
*----------------------------------------------------------------------
*----------------------------------------------------------------------
* SPICE Model generated by Murata Manufacturing Co., Ltd.
* Copyright(C) Murata Manufacturing Co., Ltd.
* MURATA P/N : LQW2UAS12NJ00
* Property : L = 12[nH]
*----------------------------------------------------------------------
* Applicable Conditions:
*   Frequency Range = 1MHz - 20GHz
*   Temperature = 25 degC
*   DC Bias Current = 0 A
*   Small Signal Operation
*----------------------------------------------------------------------
.SUBCKT LQW2UAS12NJ00 port1 port2
C1 port1 port2 8.82e-14
L2 port1 1 1.22e-8
R2 1 port2 5.30e-2
R3 port1 port2 2.45e+4
L4 port1 2 1.65e-7
R4 2 port2 25.0
L5 port1 3 6.11e-7
R5 3 port2 1.62e+3
.ENDS LQW2UAS12NJ00
*----------------------------------------------------------------------
*----------------------------------------------------------------------
* SPICE Model generated by Murata Manufacturing Co., Ltd.
* Copyright(C) Murata Manufacturing Co., Ltd.
* MURATA P/N : LQW2UAS18NG00
* Property : L = 18[nH]
*----------------------------------------------------------------------
* Applicable Conditions:
*   Frequency Range = 1MHz - 20GHz
*   Temperature = 25 degC
*   DC Bias Current = 0 A
*   Small Signal Operation
*----------------------------------------------------------------------
.SUBCKT LQW2UAS18NG00 port1 port2
C1 port1 port2 6.54e-14
L2 port1 1 1.93e-8
R2 1 port2 4.80e-2
R3 port1 port2 2.45e+4
L4 port1 2 2.94e-7
R4 2 port2 39.7
L5 port1 3 1.26e-6
R5 3 port2 2.37e+3
L6 port1 4 1.19e-7
C6 4 5 1.21e-15
R6 5 port2 125
L7 port1 6 3.59e-7
C7 6 7 1.79e-16
R7 7 port2 1.13e+3
.ENDS LQW2UAS18NG00
*----------------------------------------------------------------------
*----------------------------------------------------------------------
* SPICE Model generated by Murata Manufacturing Co., Ltd.
* Copyright(C) Murata Manufacturing Co., Ltd.
* MURATA P/N : LQW2UAS18NJ00
* Property : L = 18[nH]
*----------------------------------------------------------------------
* Applicable Conditions:
*   Frequency Range = 1MHz - 20GHz
*   Temperature = 25 degC
*   DC Bias Current = 0 A
*   Small Signal Operation
*----------------------------------------------------------------------
.SUBCKT LQW2UAS18NJ00 port1 port2
C1 port1 port2 6.54e-14
L2 port1 1 1.93e-8
R2 1 port2 4.80e-2
R3 port1 port2 2.45e+4
L4 port1 2 2.94e-7
R4 2 port2 39.7
L5 port1 3 1.26e-6
R5 3 port2 2.37e+3
L6 port1 4 1.19e-7
C6 4 5 1.21e-15
R6 5 port2 125
L7 port1 6 3.59e-7
C7 6 7 1.79e-16
R7 7 port2 1.13e+3
.ENDS LQW2UAS18NJ00
*----------------------------------------------------------------------
*----------------------------------------------------------------------
* SPICE Model generated by Murata Manufacturing Co., Ltd.
* Copyright(C) Murata Manufacturing Co., Ltd.
* MURATA P/N : LQW2UAS1R0F00
* Property : L = 1000[nH]
*----------------------------------------------------------------------
* Applicable Conditions:
*   Frequency Range = 1MHz - 20GHz
*   Temperature = 25 degC
*   DC Bias Current = 0 A
*   Small Signal Operation
*----------------------------------------------------------------------
.SUBCKT LQW2UAS1R0F00 port1 port2
C1 port1 port2 6.73e-14
L2 port1 1 1.01e-6
R2 1 port2 1.56
R3 port1 port2 1.53e+5
L4 port1 2 3.31e-5
R4 2 port2 5.64e+3
L5 port1 3 3.31e-4
R5 3 port2 2.92e+5
L6 port1 4 4.85e-6
C6 4 5 1.13e-14
R6 5 port2 4.19e+3
L7 port1 6 8.48e-6
C7 6 7 2.10e-15
R7 7 port2 3.66e+3
L8 port1 8 4.05e-7
C8 8 9 1.33e-14
R8 9 port2 853
L9 port1 10 2.14e-7
C9 10 11 1.03e-14
R9 11 port2 590
L10 port1 12 1.73e-7
C10 12 13 7.18e-15
R10 13 port2 474
L11 port1 14 1.52e-7
C11 14 15 5.39e-15
R11 15 port2 376
L12 port1 16 8.68e-8
C12 16 17 6.49e-15
R12 17 port2 298
.ENDS LQW2UAS1R0F00
*----------------------------------------------------------------------
*----------------------------------------------------------------------
* SPICE Model generated by Murata Manufacturing Co., Ltd.
* Copyright(C) Murata Manufacturing Co., Ltd.
* MURATA P/N : LQW2UAS1R0G00
* Property : L = 1000[nH]
*----------------------------------------------------------------------
* Applicable Conditions:
*   Frequency Range = 1MHz - 20GHz
*   Temperature = 25 degC
*   DC Bias Current = 0 A
*   Small Signal Operation
*----------------------------------------------------------------------
.SUBCKT LQW2UAS1R0G00 port1 port2
C1 port1 port2 6.73e-14
L2 port1 1 1.01e-6
R2 1 port2 1.56
R3 port1 port2 1.53e+5
L4 port1 2 3.31e-5
R4 2 port2 5.64e+3
L5 port1 3 3.31e-4
R5 3 port2 2.92e+5
L6 port1 4 4.85e-6
C6 4 5 1.13e-14
R6 5 port2 4.19e+3
L7 port1 6 8.48e-6
C7 6 7 2.10e-15
R7 7 port2 3.66e+3
L8 port1 8 4.05e-7
C8 8 9 1.33e-14
R8 9 port2 853
L9 port1 10 2.14e-7
C9 10 11 1.03e-14
R9 11 port2 590
L10 port1 12 1.73e-7
C10 12 13 7.18e-15
R10 13 port2 474
L11 port1 14 1.52e-7
C11 14 15 5.39e-15
R11 15 port2 376
L12 port1 16 8.68e-8
C12 16 17 6.49e-15
R12 17 port2 298
.ENDS LQW2UAS1R0G00
*----------------------------------------------------------------------
*----------------------------------------------------------------------
* SPICE Model generated by Murata Manufacturing Co., Ltd.
* Copyright(C) Murata Manufacturing Co., Ltd.
* MURATA P/N : LQW2UAS1R0J00
* Property : L = 1000[nH]
*----------------------------------------------------------------------
* Applicable Conditions:
*   Frequency Range = 1MHz - 20GHz
*   Temperature = 25 degC
*   DC Bias Current = 0 A
*   Small Signal Operation
*----------------------------------------------------------------------
.SUBCKT LQW2UAS1R0J00 port1 port2
C1 port1 port2 6.73e-14
L2 port1 1 1.01e-6
R2 1 port2 1.56
R3 port1 port2 1.53e+5
L4 port1 2 3.31e-5
R4 2 port2 5.64e+3
L5 port1 3 3.31e-4
R5 3 port2 2.92e+5
L6 port1 4 4.85e-6
C6 4 5 1.13e-14
R6 5 port2 4.19e+3
L7 port1 6 8.48e-6
C7 6 7 2.10e-15
R7 7 port2 3.66e+3
L8 port1 8 4.05e-7
C8 8 9 1.33e-14
R8 9 port2 853
L9 port1 10 2.14e-7
C9 10 11 1.03e-14
R9 11 port2 590
L10 port1 12 1.73e-7
C10 12 13 7.18e-15
R10 13 port2 474
L11 port1 14 1.52e-7
C11 14 15 5.39e-15
R11 15 port2 376
L12 port1 16 8.68e-8
C12 16 17 6.49e-15
R12 17 port2 298
.ENDS LQW2UAS1R0J00
*----------------------------------------------------------------------
*----------------------------------------------------------------------
* SPICE Model generated by Murata Manufacturing Co., Ltd.
* Copyright(C) Murata Manufacturing Co., Ltd.
* MURATA P/N : LQW2UAS1R2J00
* Property : L = 1200[nH]
*----------------------------------------------------------------------
* Applicable Conditions:
*   Frequency Range = 1MHz - 20GHz
*   Temperature = 25 degC
*   DC Bias Current = 0 A
*   Small Signal Operation
*----------------------------------------------------------------------
.SUBCKT LQW2UAS1R2J00 port1 port2
C1 port1 port2 2.56e-13
L2 port1 1 1.16e-6
R2 1 port2 1.70
R3 port1 port2 1.53e+5
L4 port1 2 3.31e-5
R4 2 port2 5.64e+3
L5 port1 3 3.31e-4
R5 3 port2 2.92e+5
L6 port1 4 8.05e-6
C6 4 5 2.01e-14
R6 5 port2 4.19e+3
L7 port1 6 1.34e-5
C7 6 7 3.33e-15
R7 7 port2 3.66e+3
L8 port1 8 8.22e-7
C8 8 9 8.34e-15
R8 9 port2 1.08e+3
L9 port1 10 2.33e-7
C9 10 11 1.69e-14
R9 11 port2 578
L10 port1 12 1.18e-7
C10 12 13 1.75e-14
R10 13 port2 656
L11 port1 14 2.81e-7
C11 14 15 2.39e-15
R11 15 port2 627
L12 port1 16 5.16e-7
C12 16 17 2.83e-16
R12 17 port2 1.36e+3
.ENDS LQW2UAS1R2J00
*----------------------------------------------------------------------
*----------------------------------------------------------------------
* SPICE Model generated by Murata Manufacturing Co., Ltd.
* Copyright(C) Murata Manufacturing Co., Ltd.
* MURATA P/N : LQW2UAS1R5J00
* Property : L = 1500[nH]
*----------------------------------------------------------------------
* Applicable Conditions:
*   Frequency Range = 1MHz - 20GHz
*   Temperature = 25 degC
*   DC Bias Current = 0 A
*   Small Signal Operation
*----------------------------------------------------------------------
.SUBCKT LQW2UAS1R5J00 port1 port2
C1 port1 port2 2.18e-13
L2 port1 1 1.43e-6
R2 1 port2 1.90
R3 port1 port2 1.53e+5
L4 port1 2 3.80e-5
R4 2 port2 5.64e+3
L5 port1 3 3.31e-4
R5 3 port2 2.92e+5
L6 port1 4 5.08e-6
C6 4 5 1.27e-14
R6 5 port2 4.19e+3
L7 port1 6 7.03e-6
C7 6 7 1.75e-15
R7 7 port2 3.66e+3
L8 port1 8 8.03e-7
C8 8 9 8.15e-15
R8 9 port2 1.08e+3
L9 port1 10 1.31e-7
C9 10 11 9.50e-15
R9 11 port2 578
L10 port1 12 5.78e-8
C10 12 13 8.57e-15
R10 13 port2 656
L11 port1 14 1.86e-7
C11 14 15 1.58e-15
R11 15 port2 627
L12 port1 16 4.93e-7
C12 16 17 2.70e-16
R12 17 port2 1.36e+3
.ENDS LQW2UAS1R5J00
*----------------------------------------------------------------------
*----------------------------------------------------------------------
* SPICE Model generated by Murata Manufacturing Co., Ltd.
* Copyright(C) Murata Manufacturing Co., Ltd.
* MURATA P/N : LQW2UAS1R8J00
* Property : L = 1800[nH]
*----------------------------------------------------------------------
* Applicable Conditions:
*   Frequency Range = 1MHz - 20GHz
*   Temperature = 25 degC
*   DC Bias Current = 0 A
*   Small Signal Operation
*----------------------------------------------------------------------
.SUBCKT LQW2UAS1R8J00 port1 port2
C1 port1 port2 2.62e-13
L2 port1 1 1.80e-6
R2 1 port2 2.10
R3 port1 port2 1.53e+5
L4 port1 2 4.07e-5
R4 2 port2 5.64e+3
L5 port1 3 3.16e-4
R5 3 port2 3.06e+5
L6 port1 4 9.91e-6
C6 4 5 2.48e-14
R6 5 port2 4.19e+3
L7 port1 6 1.77e-5
C7 6 7 4.40e-15
R7 7 port2 3.66e+3
L8 port1 8 2.02e-6
C8 8 9 2.05e-14
R8 9 port2 1.08e+3
L9 port1 10 3.29e-7
C9 10 11 2.39e-14
R9 11 port2 578
L10 port1 12 1.10e-7
C10 12 13 1.63e-14
R10 13 port2 656
L11 port1 14 1.95e-7
C11 14 15 1.65e-15
R11 15 port2 627
L12 port1 16 4.93e-7
C12 16 17 2.70e-16
R12 17 port2 1.36e+3
.ENDS LQW2UAS1R8J00
*----------------------------------------------------------------------
*----------------------------------------------------------------------
* SPICE Model generated by Murata Manufacturing Co., Ltd.
* Copyright(C) Murata Manufacturing Co., Ltd.
* MURATA P/N : LQW2UAS22NF00
* Property : L = 22[nH]
*----------------------------------------------------------------------
* Applicable Conditions:
*   Frequency Range = 1MHz - 20GHz
*   Temperature = 25 degC
*   DC Bias Current = 0 A
*   Small Signal Operation
*----------------------------------------------------------------------
.SUBCKT LQW2UAS22NF00 port1 port2
C1 port1 port2 8.62e-14
L2 port1 1 2.22e-8
R2 1 port2 7.90e-2
R3 port1 port2 2.45e+4
L4 port1 2 3.97e-7
R4 2 port2 52.3
L5 port1 3 1.45e-6
R5 3 port2 2.37e+3
L6 port1 4 2.54e-7
C6 4 5 2.59e-15
R6 5 port2 125
L7 port1 6 5.69e-7
C7 6 7 2.84e-16
R7 7 port2 1.13e+3
.ENDS LQW2UAS22NF00
*----------------------------------------------------------------------
*----------------------------------------------------------------------
* SPICE Model generated by Murata Manufacturing Co., Ltd.
* Copyright(C) Murata Manufacturing Co., Ltd.
* MURATA P/N : LQW2UAS22NG00
* Property : L = 22[nH]
*----------------------------------------------------------------------
* Applicable Conditions:
*   Frequency Range = 1MHz - 20GHz
*   Temperature = 25 degC
*   DC Bias Current = 0 A
*   Small Signal Operation
*----------------------------------------------------------------------
.SUBCKT LQW2UAS22NG00 port1 port2
C1 port1 port2 8.62e-14
L2 port1 1 2.22e-8
R2 1 port2 7.90e-2
R3 port1 port2 2.45e+4
L4 port1 2 3.97e-7
R4 2 port2 52.3
L5 port1 3 1.45e-6
R5 3 port2 2.37e+3
L6 port1 4 2.54e-7
C6 4 5 2.59e-15
R6 5 port2 125
L7 port1 6 5.69e-7
C7 6 7 2.84e-16
R7 7 port2 1.13e+3
.ENDS LQW2UAS22NG00
*----------------------------------------------------------------------
*----------------------------------------------------------------------
* SPICE Model generated by Murata Manufacturing Co., Ltd.
* Copyright(C) Murata Manufacturing Co., Ltd.
* MURATA P/N : LQW2UAS22NJ00
* Property : L = 22[nH]
*----------------------------------------------------------------------
* Applicable Conditions:
*   Frequency Range = 1MHz - 20GHz
*   Temperature = 25 degC
*   DC Bias Current = 0 A
*   Small Signal Operation
*----------------------------------------------------------------------
.SUBCKT LQW2UAS22NJ00 port1 port2
C1 port1 port2 8.62e-14
L2 port1 1 2.22e-8
R2 1 port2 7.90e-2
R3 port1 port2 2.45e+4
L4 port1 2 3.97e-7
R4 2 port2 52.3
L5 port1 3 1.45e-6
R5 3 port2 2.37e+3
L6 port1 4 2.54e-7
C6 4 5 2.59e-15
R6 5 port2 125
L7 port1 6 5.69e-7
C7 6 7 2.84e-16
R7 7 port2 1.13e+3
.ENDS LQW2UAS22NJ00
*----------------------------------------------------------------------
*----------------------------------------------------------------------
* SPICE Model generated by Murata Manufacturing Co., Ltd.
* Copyright(C) Murata Manufacturing Co., Ltd.
* MURATA P/N : LQW2UAS27NG00
* Property : L = 27[nH]
*----------------------------------------------------------------------
* Applicable Conditions:
*   Frequency Range = 1MHz - 20GHz
*   Temperature = 25 degC
*   DC Bias Current = 0 A
*   Small Signal Operation
*----------------------------------------------------------------------
.SUBCKT LQW2UAS27NG00 port1 port2
C1 port1 port2 1.43e-13
L2 port1 1 2.79e-8
R2 1 port2 9.80e-2
R3 port1 port2 2.45e+4
L4 port1 2 4.56e-7
R4 2 port2 52.3
L5 port1 3 1.63e-6
R5 3 port2 2.37e+3
L6 port1 4 2.54e-7
C6 4 5 2.31e-15
R6 5 port2 125
L7 port1 6 5.69e-7
C7 6 7 2.71e-16
R7 7 port2 1.13e+3
.ENDS LQW2UAS27NG00
*----------------------------------------------------------------------
*----------------------------------------------------------------------
* SPICE Model generated by Murata Manufacturing Co., Ltd.
* Copyright(C) Murata Manufacturing Co., Ltd.
* MURATA P/N : LQW2UAS27NJ00
* Property : L = 27[nH]
*----------------------------------------------------------------------
* Applicable Conditions:
*   Frequency Range = 1MHz - 20GHz
*   Temperature = 25 degC
*   DC Bias Current = 0 A
*   Small Signal Operation
*----------------------------------------------------------------------
.SUBCKT LQW2UAS27NJ00 port1 port2
C1 port1 port2 1.43e-13
L2 port1 1 2.79e-8
R2 1 port2 9.80e-2
R3 port1 port2 2.45e+4
L4 port1 2 4.56e-7
R4 2 port2 52.3
L5 port1 3 1.63e-6
R5 3 port2 2.37e+3
L6 port1 4 2.54e-7
C6 4 5 2.31e-15
R6 5 port2 125
L7 port1 6 5.69e-7
C7 6 7 2.71e-16
R7 7 port2 1.13e+3
.ENDS LQW2UAS27NJ00
*----------------------------------------------------------------------
*----------------------------------------------------------------------
* SPICE Model generated by Murata Manufacturing Co., Ltd.
* Copyright(C) Murata Manufacturing Co., Ltd.
* MURATA P/N : LQW2UAS2R2J00
* Property : L = 2200[nH]
*----------------------------------------------------------------------
* Applicable Conditions:
*   Frequency Range = 1MHz - 20GHz
*   Temperature = 25 degC
*   DC Bias Current = 0 A
*   Small Signal Operation
*----------------------------------------------------------------------
.SUBCKT LQW2UAS2R2J00 port1 port2
C1 port1 port2 3.15e-13
L2 port1 1 2.16e-6
R2 1 port2 2.31
R3 port1 port2 1.53e+5
L4 port1 2 4.57e-5
R4 2 port2 5.64e+3
L5 port1 3 3.16e-4
R5 3 port2 3.06e+5
L6 port1 4 7.02e-6
C6 4 5 1.76e-14
R6 5 port2 4.19e+3
L7 port1 6 1.51e-5
C7 6 7 3.75e-15
R7 7 port2 3.66e+3
L8 port1 8 8.82e-7
C8 8 9 8.95e-15
R8 9 port2 1.08e+3
L9 port1 10 2.50e-7
C9 10 11 1.81e-14
R9 11 port2 578
L10 port1 12 1.18e-7
C10 12 13 1.75e-14
R10 13 port2 656
L11 port1 14 2.63e-7
C11 14 15 2.23e-15
R11 15 port2 627
L12 port1 16 4.50e-7
C12 16 17 2.46e-16
R12 17 port2 1.36e+3
.ENDS LQW2UAS2R2J00
*----------------------------------------------------------------------
*----------------------------------------------------------------------
* SPICE Model generated by Murata Manufacturing Co., Ltd.
* Copyright(C) Murata Manufacturing Co., Ltd.
* MURATA P/N : LQW2UAS2R7J00
* Property : L = 2700[nH]
*----------------------------------------------------------------------
* Applicable Conditions:
*   Frequency Range = 1MHz - 20GHz
*   Temperature = 25 degC
*   DC Bias Current = 0 A
*   Small Signal Operation
*----------------------------------------------------------------------
.SUBCKT LQW2UAS2R7J00 port1 port2
C1 port1 port2 3.30e-13
L2 port1 1 2.60e-6
R2 1 port2 2.58
R3 port1 port2 1.53e+5
L4 port1 2 5.01e-5
R4 2 port2 5.64e+3
L5 port1 3 3.16e-4
R5 3 port2 3.06e+5
L6 port1 4 8.06e-6
C6 4 5 2.02e-14
R6 5 port2 4.19e+3
L7 port1 6 1.86e-5
C7 6 7 4.61e-15
R7 7 port2 3.66e+3
L8 port1 8 9.67e-7
C8 8 9 9.81e-15
R8 9 port2 1.08e+3
L9 port1 10 2.68e-7
C9 10 11 1.94e-14
R9 11 port2 578
L10 port1 12 1.35e-7
C10 12 13 2.01e-14
R10 13 port2 656
L11 port1 14 4.27e-7
C11 14 15 3.62e-15
R11 15 port2 627
L12 port1 16 5.67e-7
C12 16 17 3.10e-16
R12 17 port2 1.36e+3
.ENDS LQW2UAS2R7J00
*----------------------------------------------------------------------
*----------------------------------------------------------------------
* SPICE Model generated by Murata Manufacturing Co., Ltd.
* Copyright(C) Murata Manufacturing Co., Ltd.
* MURATA P/N : LQW2UAS33NF00
* Property : L = 33[nH]
*----------------------------------------------------------------------
* Applicable Conditions:
*   Frequency Range = 1MHz - 20GHz
*   Temperature = 25 degC
*   DC Bias Current = 0 A
*   Small Signal Operation
*----------------------------------------------------------------------
.SUBCKT LQW2UAS33NF00 port1 port2
C1 port1 port2 8.62e-14
L2 port1 1 3.35e-8
R2 1 port2 1.03e-1
R3 port1 port2 2.45e+4
L4 port1 2 5.36e-7
R4 2 port2 52.3
L5 port1 3 2.25e-6
R5 3 port2 2.37e+3
L6 port1 4 2.54e-7
C6 4 5 5.05e-15
R6 5 port2 125
L7 port1 6 5.69e-7
C7 6 7 5.41e-16
R7 7 port2 1.13e+3
L8 port1 8 3.67e-6
C8 8 9 3.33e-17
R8 9 port2 6.29e+3
.ENDS LQW2UAS33NF00
*----------------------------------------------------------------------
*----------------------------------------------------------------------
* SPICE Model generated by Murata Manufacturing Co., Ltd.
* Copyright(C) Murata Manufacturing Co., Ltd.
* MURATA P/N : LQW2UAS33NG00
* Property : L = 33[nH]
*----------------------------------------------------------------------
* Applicable Conditions:
*   Frequency Range = 1MHz - 20GHz
*   Temperature = 25 degC
*   DC Bias Current = 0 A
*   Small Signal Operation
*----------------------------------------------------------------------
.SUBCKT LQW2UAS33NG00 port1 port2
C1 port1 port2 8.62e-14
L2 port1 1 3.35e-8
R2 1 port2 1.03e-1
R3 port1 port2 2.45e+4
L4 port1 2 5.36e-7
R4 2 port2 52.3
L5 port1 3 2.25e-6
R5 3 port2 2.37e+3
L6 port1 4 2.54e-7
C6 4 5 5.05e-15
R6 5 port2 125
L7 port1 6 5.69e-7
C7 6 7 5.41e-16
R7 7 port2 1.13e+3
L8 port1 8 3.67e-6
C8 8 9 3.33e-17
R8 9 port2 6.29e+3
.ENDS LQW2UAS33NG00
*----------------------------------------------------------------------
*----------------------------------------------------------------------
* SPICE Model generated by Murata Manufacturing Co., Ltd.
* Copyright(C) Murata Manufacturing Co., Ltd.
* MURATA P/N : LQW2UAS33NJ00
* Property : L = 33[nH]
*----------------------------------------------------------------------
* Applicable Conditions:
*   Frequency Range = 1MHz - 20GHz
*   Temperature = 25 degC
*   DC Bias Current = 0 A
*   Small Signal Operation
*----------------------------------------------------------------------
.SUBCKT LQW2UAS33NJ00 port1 port2
C1 port1 port2 8.62e-14
L2 port1 1 3.35e-8
R2 1 port2 1.03e-1
R3 port1 port2 2.45e+4
L4 port1 2 5.36e-7
R4 2 port2 52.3
L5 port1 3 2.25e-6
R5 3 port2 2.37e+3
L6 port1 4 2.54e-7
C6 4 5 5.05e-15
R6 5 port2 125
L7 port1 6 5.69e-7
C7 6 7 5.41e-16
R7 7 port2 1.13e+3
L8 port1 8 3.67e-6
C8 8 9 3.33e-17
R8 9 port2 6.29e+3
.ENDS LQW2UAS33NJ00
*----------------------------------------------------------------------
*----------------------------------------------------------------------
* SPICE Model generated by Murata Manufacturing Co., Ltd.
* Copyright(C) Murata Manufacturing Co., Ltd.
* MURATA P/N : LQW2UAS39NF00
* Property : L = 39[nH]
*----------------------------------------------------------------------
* Applicable Conditions:
*   Frequency Range = 1MHz - 20GHz
*   Temperature = 25 degC
*   DC Bias Current = 0 A
*   Small Signal Operation
*----------------------------------------------------------------------
.SUBCKT LQW2UAS39NF00 port1 port2
C1 port1 port2 1.43e-13
L2 port1 1 4.12e-8
R2 1 port2 1.03e-1
R3 port1 port2 2.45e+4
L4 port1 2 1.11e-6
R4 2 port2 144
L5 port1 3 2.97e-6
R5 3 port2 2.16e+3
L6 port1 4 2.54e-7
C6 4 5 4.20e-15
R6 5 port2 125
L7 port1 6 5.69e-7
C7 6 7 4.93e-16
R7 7 port2 1.13e+3
L8 port1 8 3.67e-6
C8 8 9 3.33e-17
R8 9 port2 6.29e+3
.ENDS LQW2UAS39NF00
*----------------------------------------------------------------------
*----------------------------------------------------------------------
* SPICE Model generated by Murata Manufacturing Co., Ltd.
* Copyright(C) Murata Manufacturing Co., Ltd.
* MURATA P/N : LQW2UAS39NG00
* Property : L = 39[nH]
*----------------------------------------------------------------------
* Applicable Conditions:
*   Frequency Range = 1MHz - 20GHz
*   Temperature = 25 degC
*   DC Bias Current = 0 A
*   Small Signal Operation
*----------------------------------------------------------------------
.SUBCKT LQW2UAS39NG00 port1 port2
C1 port1 port2 1.43e-13
L2 port1 1 4.12e-8
R2 1 port2 1.03e-1
R3 port1 port2 2.45e+4
L4 port1 2 1.11e-6
R4 2 port2 144
L5 port1 3 2.97e-6
R5 3 port2 2.16e+3
L6 port1 4 2.54e-7
C6 4 5 4.20e-15
R6 5 port2 125
L7 port1 6 5.69e-7
C7 6 7 4.93e-16
R7 7 port2 1.13e+3
L8 port1 8 3.67e-6
C8 8 9 3.33e-17
R8 9 port2 6.29e+3
.ENDS LQW2UAS39NG00
*----------------------------------------------------------------------
*----------------------------------------------------------------------
* SPICE Model generated by Murata Manufacturing Co., Ltd.
* Copyright(C) Murata Manufacturing Co., Ltd.
* MURATA P/N : LQW2UAS39NJ00
* Property : L = 39[nH]
*----------------------------------------------------------------------
* Applicable Conditions:
*   Frequency Range = 1MHz - 20GHz
*   Temperature = 25 degC
*   DC Bias Current = 0 A
*   Small Signal Operation
*----------------------------------------------------------------------
.SUBCKT LQW2UAS39NJ00 port1 port2
C1 port1 port2 1.43e-13
L2 port1 1 4.12e-8
R2 1 port2 1.03e-1
R3 port1 port2 2.45e+4
L4 port1 2 1.11e-6
R4 2 port2 144
L5 port1 3 2.97e-6
R5 3 port2 2.16e+3
L6 port1 4 2.54e-7
C6 4 5 4.20e-15
R6 5 port2 125
L7 port1 6 5.69e-7
C7 6 7 4.93e-16
R7 7 port2 1.13e+3
L8 port1 8 3.67e-6
C8 8 9 3.33e-17
R8 9 port2 6.29e+3
.ENDS LQW2UAS39NJ00
*----------------------------------------------------------------------
*----------------------------------------------------------------------
* SPICE Model generated by Murata Manufacturing Co., Ltd.
* Copyright(C) Murata Manufacturing Co., Ltd.
* MURATA P/N : LQW2UAS3R3J00
* Property : L = 3300[nH]
*----------------------------------------------------------------------
* Applicable Conditions:
*   Frequency Range = 1MHz - 20GHz
*   Temperature = 25 degC
*   DC Bias Current = 0 A
*   Small Signal Operation
*----------------------------------------------------------------------
.SUBCKT LQW2UAS3R3J00 port1 port2
C1 port1 port2 3.38e-13
L2 port1 1 3.20e-6
R2 1 port2 2.92
R3 port1 port2 1.53e+5
L4 port1 2 6.84e-5
R4 2 port2 8.62e+3
L5 port1 3 1.10e-3
R5 3 port2 3.06e+5
L6 port1 4 1.47e-5
C6 4 5 3.68e-14
R6 5 port2 4.19e+3
L7 port1 6 2.95e-5
C7 6 7 7.31e-15
R7 7 port2 3.66e+3
L8 port1 8 1.04e-6
C8 8 9 1.05e-14
R8 9 port2 1.08e+3
L9 port1 10 2.18e-7
C9 10 11 1.58e-14
R9 11 port2 578
L10 port1 12 9.13e-8
C10 12 13 1.36e-14
R10 13 port2 656
L11 port1 14 2.04e-7
C11 14 15 1.73e-15
R11 15 port2 627
L12 port1 16 5.94e-7
C12 16 17 3.25e-16
R12 17 port2 1.36e+3
.ENDS LQW2UAS3R3J00
*----------------------------------------------------------------------
*----------------------------------------------------------------------
* SPICE Model generated by Murata Manufacturing Co., Ltd.
* Copyright(C) Murata Manufacturing Co., Ltd.
* MURATA P/N : LQW2UAS3R9J00
* Property : L = 3900[nH]
*----------------------------------------------------------------------
* Applicable Conditions:
*   Frequency Range = 1MHz - 20GHz
*   Temperature = 25 degC
*   DC Bias Current = 0 A
*   Small Signal Operation
*----------------------------------------------------------------------
.SUBCKT LQW2UAS3R9J00 port1 port2
C1 port1 port2 4.77e-13
L2 port1 1 3.76e-6
R2 1 port2 3.12
R3 port1 port2 1.53e+5
L4 port1 2 7.16e-5
R4 2 port2 8.62e+3
L5 port1 3 1.10e-3
R5 3 port2 3.06e+5
L6 port1 4 1.85e-5
C6 4 5 4.63e-14
R6 5 port2 4.19e+3
L7 port1 6 2.29e-5
C7 6 7 5.67e-15
R7 7 port2 3.66e+3
L8 port1 8 1.17e-6
C8 8 9 1.18e-14
R8 9 port2 1.08e+3
L9 port1 10 1.99e-7
C9 10 11 1.44e-14
R9 11 port2 578
L10 port1 12 9.13e-8
C10 12 13 1.36e-14
R10 13 port2 656
L11 port1 14 2.40e-7
C11 14 15 2.03e-15
R11 15 port2 627
L12 port1 16 6.36e-7
C12 16 17 3.48e-16
R12 17 port2 1.36e+3
.ENDS LQW2UAS3R9J00
*----------------------------------------------------------------------
*----------------------------------------------------------------------
* SPICE Model generated by Murata Manufacturing Co., Ltd.
* Copyright(C) Murata Manufacturing Co., Ltd.
* MURATA P/N : LQW2UAS47NF00
* Property : L = 47[nH]
*----------------------------------------------------------------------
* Applicable Conditions:
*   Frequency Range = 1MHz - 20GHz
*   Temperature = 25 degC
*   DC Bias Current = 0 A
*   Small Signal Operation
*----------------------------------------------------------------------
.SUBCKT LQW2UAS47NF00 port1 port2
C1 port1 port2 8.42e-14
L2 port1 1 4.73e-8
R2 1 port2 1.03e-1
R3 port1 port2 2.45e+4
L4 port1 2 8.63e-7
R4 2 port2 79.3
L5 port1 3 3.31e-6
R5 3 port2 2.05e+3
L6 port1 4 2.54e-7
C6 4 5 8.98e-15
R6 5 port2 125
L7 port1 6 5.69e-7
C7 6 7 8.97e-16
R7 7 port2 1.13e+3
L8 port1 8 3.67e-6
C8 8 9 4.10e-17
R8 9 port2 6.29e+3
.ENDS LQW2UAS47NF00
*----------------------------------------------------------------------
*----------------------------------------------------------------------
* SPICE Model generated by Murata Manufacturing Co., Ltd.
* Copyright(C) Murata Manufacturing Co., Ltd.
* MURATA P/N : LQW2UAS47NG00
* Property : L = 47[nH]
*----------------------------------------------------------------------
* Applicable Conditions:
*   Frequency Range = 1MHz - 20GHz
*   Temperature = 25 degC
*   DC Bias Current = 0 A
*   Small Signal Operation
*----------------------------------------------------------------------
.SUBCKT LQW2UAS47NG00 port1 port2
C1 port1 port2 8.42e-14
L2 port1 1 4.73e-8
R2 1 port2 1.03e-1
R3 port1 port2 2.45e+4
L4 port1 2 8.63e-7
R4 2 port2 79.3
L5 port1 3 3.31e-6
R5 3 port2 2.05e+3
L6 port1 4 2.54e-7
C6 4 5 8.98e-15
R6 5 port2 125
L7 port1 6 5.69e-7
C7 6 7 8.97e-16
R7 7 port2 1.13e+3
L8 port1 8 3.67e-6
C8 8 9 4.10e-17
R8 9 port2 6.29e+3
.ENDS LQW2UAS47NG00
*----------------------------------------------------------------------
*----------------------------------------------------------------------
* SPICE Model generated by Murata Manufacturing Co., Ltd.
* Copyright(C) Murata Manufacturing Co., Ltd.
* MURATA P/N : LQW2UAS47NJ00
* Property : L = 47[nH]
*----------------------------------------------------------------------
* Applicable Conditions:
*   Frequency Range = 1MHz - 20GHz
*   Temperature = 25 degC
*   DC Bias Current = 0 A
*   Small Signal Operation
*----------------------------------------------------------------------
.SUBCKT LQW2UAS47NJ00 port1 port2
C1 port1 port2 8.42e-14
L2 port1 1 4.73e-8
R2 1 port2 1.03e-1
R3 port1 port2 2.45e+4
L4 port1 2 8.63e-7
R4 2 port2 79.3
L5 port1 3 3.31e-6
R5 3 port2 2.05e+3
L6 port1 4 2.54e-7
C6 4 5 8.98e-15
R6 5 port2 125
L7 port1 6 5.69e-7
C7 6 7 8.97e-16
R7 7 port2 1.13e+3
L8 port1 8 3.67e-6
C8 8 9 4.10e-17
R8 9 port2 6.29e+3
.ENDS LQW2UAS47NJ00
*----------------------------------------------------------------------
*----------------------------------------------------------------------
* SPICE Model generated by Murata Manufacturing Co., Ltd.
* Copyright(C) Murata Manufacturing Co., Ltd.
* MURATA P/N : LQW2UAS4R7J00
* Property : L = 4700[nH]
*----------------------------------------------------------------------
* Applicable Conditions:
*   Frequency Range = 1MHz - 20GHz
*   Temperature = 25 degC
*   DC Bias Current = 0 A
*   Small Signal Operation
*----------------------------------------------------------------------
.SUBCKT LQW2UAS4R7J00 port1 port2
C1 port1 port2 3.88e-13
L2 port1 1 4.52e-6
R2 1 port2 3.45
R3 port1 port2 1.53e+5
L4 port1 2 8.41e-5
R4 2 port2 9.67e+3
L5 port1 3 1.15e-3
R5 3 port2 3.06e+5
L6 port1 4 1.85e-5
C6 4 5 4.85e-14
R6 5 port2 4.19e+3
L7 port1 6 2.29e-5
C7 6 7 1.42e-14
R7 7 port2 3.66e+3
L8 port1 8 1.17e-6
C8 8 9 1.96e-14
R8 9 port2 1.08e+3
L9 port1 10 1.99e-7
C9 10 11 4.55e-14
R9 11 port2 578
L10 port1 12 9.13e-8
C10 12 13 2.53e-14
R10 13 port2 656
L11 port1 14 2.40e-7
C11 14 15 2.13e-15
R11 15 port2 627
L12 port1 16 6.36e-7
C12 16 17 3.48e-16
R12 17 port2 1.36e+3
.ENDS LQW2UAS4R7J00
*----------------------------------------------------------------------
*----------------------------------------------------------------------
* SPICE Model generated by Murata Manufacturing Co., Ltd.
* Copyright(C) Murata Manufacturing Co., Ltd.
* MURATA P/N : LQW2UAS56NF00
* Property : L = 56[nH]
*----------------------------------------------------------------------
* Applicable Conditions:
*   Frequency Range = 1MHz - 20GHz
*   Temperature = 25 degC
*   DC Bias Current = 0 A
*   Small Signal Operation